version 3
run DualFailover2Steps-0-20250725-13:31:21-6302
attr configname DualFailover2Steps
attr datetime 20250725-13:31:21
attr datetimef 20250725-133121
attr experiment DualFailover2Steps
attr inifile omnetpp.ini
attr iterationvars ""
attr iterationvarsd ""
attr iterationvarsf ""
attr measurement ""
attr network TwoMasterClocksRingGptpShowcase
attr processid 6302
attr repetition 0
attr replication #0
attr resultdir results
attr runnumber 0
attr seedset 0
config image-path ../../../../images
config extends TwoMasterClocksExploitingNetworkRedundancy
config network TwoMasterClocksRingGptpShowcase
config description "t=1s: falha Clock1 -> Clock2; t=3s: falha Clock2 -> Clock1"
config sim-time-limit 4.5s
config *.scenarioManager.typename ScenarioManager
config *.scenarioManager.script "xmldoc(\"gptp_dual_failover_2steps.xml\")"
config network TwoMasterClocksRingGptpShowcase
config description "Ring topology with redundant time synchronization domains"
config experiment-label DualFailover2Steps
config *.tsnClock2.clock.typename MultiClock
config *.tsnClock2.clock.numClocks 2
config *.tsnClock*.gptp.typename MultiDomainGptp
config *.tsnClock1.gptp.numDomains 2
config *.tsnClock1.gptp.domain[0..1].clockModule "\"tsnClock1.clock\""
config *.tsnClock1.gptp.domain[0].masterPorts "[\"eth0\"]"
config *.tsnClock1.gptp.domain[1].masterPorts "[\"eth0\"]"
config *.tsnClock2.gptp.numDomains 4
config *.tsnClock2.gptp.domain[2..3].clockModule "\"tsnClock2.clock\""
config *.tsnClock2.gptp.domain[0].gptpNodeType "\"SLAVE_NODE\""
config *.tsnClock2.gptp.domain[0].slavePort "\"eth0\""
config *.tsnClock2.gptp.domain[1].gptpNodeType "\"SLAVE_NODE\""
config *.tsnClock2.gptp.domain[1].slavePort "\"eth0\""
config *.tsnClock2.gptp.domain[2].gptpNodeType "\"MASTER_NODE\""
config *.tsnClock2.gptp.domain[2].masterPorts "[\"eth0\"]"
config *.tsnClock2.gptp.domain[3].gptpNodeType "\"MASTER_NODE\""
config *.tsnClock2.gptp.domain[3].masterPorts "[\"eth0\"]"
config *.tsnSwitch*.clock.typename MultiClock
config *.tsnSwitch*.clock.numClocks 4
config *.tsnSwitch*.gptp.typename MultiDomainGptp
config *.tsnSwitch*.gptp.numDomains 4
config *.tsnSwitch1.gptp.domain[0].masterPorts "[\"eth1\"]"
config *.tsnSwitch1.gptp.domain[0].slavePort "\"eth0\""
config *.tsnSwitch1.gptp.domain[1].masterPorts "[\"eth2\"]"
config *.tsnSwitch1.gptp.domain[1].slavePort "\"eth0\""
config *.tsnSwitch1.gptp.domain[2].masterPorts "[\"eth1\"]"
config *.tsnSwitch1.gptp.domain[2].slavePort "\"eth2\""
config *.tsnSwitch1.gptp.domain[3].masterPorts "[\"eth2\"]"
config *.tsnSwitch1.gptp.domain[3].slavePort "\"eth1\""
config *.tsnSwitch2.gptp.domain[0].masterPorts "[\"eth1\", \"eth2\"]"
config *.tsnSwitch2.gptp.domain[0].slavePort "\"eth0\""
config *.tsnSwitch2.gptp.domain[1].masterPorts "[\"eth2\"]"
config *.tsnSwitch2.gptp.domain[1].slavePort "\"eth1\""
config *.tsnSwitch2.gptp.domain[2].masterPorts "[\"eth1\", \"eth2\"]"
config *.tsnSwitch2.gptp.domain[2].slavePort "\"eth0\""
config *.tsnSwitch2.gptp.domain[3].masterPorts "[\"eth0\", \"eth2\"]"
config *.tsnSwitch2.gptp.domain[3].slavePort "\"eth1\""
config *.tsnSwitch3.gptp.domain[0].masterPorts "[\"eth1\", \"eth2\"]"
config *.tsnSwitch3.gptp.domain[0].slavePort "\"eth0\""
config *.tsnSwitch3.gptp.domain[1].masterPorts "[\"eth0\", \"eth2\"]"
config *.tsnSwitch3.gptp.domain[1].slavePort "\"eth1\""
config *.tsnSwitch3.gptp.domain[2].masterPorts "[\"eth2\"]"
config *.tsnSwitch3.gptp.domain[2].slavePort "\"eth0\""
config *.tsnSwitch3.gptp.domain[3].masterPorts "[\"eth0\", \"eth2\"]"
config *.tsnSwitch3.gptp.domain[3].slavePort "\"eth1\""
config *.tsnSwitch4.gptp.domain[0].masterPorts "[\"eth0\", \"eth2\"]"
config *.tsnSwitch4.gptp.domain[0].slavePort "\"eth1\""
config *.tsnSwitch4.gptp.domain[1].masterPorts "[\"eth0\", \"eth1\"]"
config *.tsnSwitch4.gptp.domain[1].slavePort "\"eth2\""
config *.tsnSwitch4.gptp.domain[2].masterPorts "[\"eth2\"]"
config *.tsnSwitch4.gptp.domain[2].slavePort "\"eth0\""
config *.tsnSwitch4.gptp.domain[3].masterPorts "[\"eth1\"]"
config *.tsnSwitch4.gptp.domain[3].slavePort "\"eth0\""
config *.tsnSwitch5.gptp.domain[0].masterPorts "[\"eth1\", \"eth2\"]"
config *.tsnSwitch5.gptp.domain[0].slavePort "\"eth0\""
config *.tsnSwitch5.gptp.domain[1].masterPorts "[\"eth0\", \"eth2\"]"
config *.tsnSwitch5.gptp.domain[1].slavePort "\"eth1\""
config *.tsnSwitch5.gptp.domain[2].masterPorts "[\"eth1\", \"eth2\"]"
config *.tsnSwitch5.gptp.domain[2].slavePort "\"eth0\""
config *.tsnSwitch5.gptp.domain[3].masterPorts "[\"eth2\"]"
config *.tsnSwitch5.gptp.domain[3].slavePort "\"eth1\""
config *.tsnSwitch6.gptp.domain[0].masterPorts "[\"eth2\"]"
config *.tsnSwitch6.gptp.domain[0].slavePort "\"eth0\""
config *.tsnSwitch6.gptp.domain[1].masterPorts "[\"eth0\", \"eth2\"]"
config *.tsnSwitch6.gptp.domain[1].slavePort "\"eth1\""
config *.tsnSwitch6.gptp.domain[2].masterPorts "[\"eth1\", \"eth2\"]"
config *.tsnSwitch6.gptp.domain[2].slavePort "\"eth0\""
config *.tsnSwitch6.gptp.domain[3].masterPorts "[\"eth0\", \"eth2\"]"
config *.tsnSwitch6.gptp.domain[3].slavePort "\"eth1\""
config *.tsnDevice*.clock.typename MultiClock
config *.tsnDevice*.clock.numClocks 4
config *.tsnDevice*.gptp.typename MultiDomainGptp
config *.tsnDevice*.gptp.numDomains 4
config *.tsnDevice1.gptp.clockModule "\"tsnDevice1.clock\""
config *.tsnDevice2.gptp.clockModule "\"tsnDevice2.clock\""
config *.tsnDevice3.gptp.clockModule "\"tsnDevice3.clock\""
config *.tsnDevice4.gptp.clockModule "\"tsnDevice4.clock\""
config *.tsnDevice*.gptp.domain[*].slavePort "\"eth0\""
config **.pdelayInitialOffset 0.1ms
config *.*.gptp.domain[0].syncInitialOffset "syncInterval * 1 / 4"
config *.*.gptp.domain[1].syncInitialOffset "syncInterval * 2 / 4"
config *.*.gptp.domain[2].syncInitialOffset "syncInterval * 3 / 4"
config *.*.gptp.domain[3].syncInitialOffset "syncInterval * 4 / 4"
config *.visualizer.typename IntegratedMultiCanvasVisualizer
config *.visualizer.numDataLinkVisualizers 4
config *.visualizer.dataLinkVisualizer[*].displayLinks true
config *.visualizer.dataLinkVisualizer[*].activityLevel "\"protocol\""
config *.visualizer.dataLinkVisualizer[0].packetFilter "expr(has(GptpSync) && GptpSync.domainNumber == 0)"
config *.visualizer.dataLinkVisualizer[1].packetFilter "expr(has(GptpSync) && GptpSync.domainNumber == 1)"
config *.visualizer.dataLinkVisualizer[2].packetFilter "expr(has(GptpSync) && GptpSync.domainNumber == 2)"
config *.visualizer.dataLinkVisualizer[3].packetFilter "expr(has(GptpSync) && GptpSync.domainNumber == 3)"
config *.visualizer.dataLinkVisualizer[0].tags "\"primary GM domain0\""
config *.visualizer.dataLinkVisualizer[1].tags "\"primary GM domain1\""
config *.visualizer.dataLinkVisualizer[2].tags "\"hot-standby GM domain0\""
config *.visualizer.dataLinkVisualizer[3].tags "\"hot-standby GM domain1\""
config *.visualizer.dataLinkVisualizer[0].lineColor "\"blue4\""
config *.visualizer.dataLinkVisualizer[1].lineColor "\"blue1\""
config *.visualizer.dataLinkVisualizer[2].lineColor "\"red4\""
config *.visualizer.dataLinkVisualizer[3].lineColor "\"red1\""
config *.tsnClock1.clock.referenceClock "\"tsnClock1.clock\""
config *.tsnClock2.clock.clock[*].referenceClock "\"tsnClock1.clock\""
config *.tsnSwitch*.clock.clock[0..1].referenceClock "\"tsnClock1.clock\""
config *.tsnDevice*.clock.clock[0..1].referenceClock "\"tsnClock1.clock\""
config *.tsnSwitch*.clock.clock[2..3].referenceClock "\"tsnClock2.clock.clock[1]\""
config *.tsnDevice*.clock.clock[2..3].referenceClock "\"tsnClock2.clock.clock[1]\""
config *.tsnSwitch*.clock.clock[*].displayStringTextFormat "\"%d\""
config *.tsnDevice*.clock.clock[*].displayStringTextFormat "\"%d\""
config *.tsnClock1.clock.displayStringTextFormat "\"time: %T\""
config *.tsnClock2.clock.clock*.displayStringTextFormat "\"time: %T\\ndiff: %d\""
config *.visualizer.numInfoVisualizers 11
config *.visualizer.infoVisualizer[0].modules "\"*.tsnClock1.clock\""
config *.visualizer.infoVisualizer[0].textColor "\"blue4\""
config *.visualizer.infoVisualizer[1].modules "\"*.tsnSwitch1.*.clock[0] or *.tsnSwitch2.*.clock[0] or *.tsnSwitch6.*.clock[0] or *.tsnDevice1.*.clock[0] or *.tsnDevice4.*.clock[0]\""
config *.visualizer.infoVisualizer[1].textColor "\"blue4\""
config *.visualizer.infoVisualizer[2].modules "\"*.tsnSwitch1.*.clock[1] or *.tsnSwitch2.*.clock[1] or *.tsnSwitch6.*.clock[1] or *.tsnDevice1.*.clock[1] or *.tsnDevice4.*.clock[1]\""
config *.visualizer.infoVisualizer[2].textColor "\"blue1\""
config *.visualizer.infoVisualizer[3].modules "\"*.tsnSwitch1.*.clock[2] or *.tsnSwitch2.*.clock[2] or *.tsnSwitch6.*.clock[2] or *.tsnDevice1.*.clock[2] or *.tsnDevice4.*.clock[2]\""
config *.visualizer.infoVisualizer[3].textColor "\"red4\""
config *.visualizer.infoVisualizer[4].modules "\"*.tsnSwitch1.*.clock[3] or *.tsnSwitch2.*.clock[3] or *.tsnSwitch6.*.clock[3] or *.tsnDevice1.*.clock[3] or *.tsnDevice4.*.clock[3]\""
config *.visualizer.infoVisualizer[4].textColor "\"red1\""
config *.visualizer.infoVisualizer[5].modules "\"*.tsnDevice2.*.clock[0] or *.tsnDevice3.*.clock[0] or *.tsnSwitch3.*.clock[0] or *.tsnSwitch4.*.clock[0] or *.tsnSwitch5.*.clock[0]\""
config *.visualizer.infoVisualizer[5].textColor "\"blue4\""
config *.visualizer.infoVisualizer[6].modules "\"*.tsnDevice2.*.clock[1] or *.tsnDevice3.*.clock[1] or *.tsnSwitch3.*.clock[1] or *.tsnSwitch4.*.clock[1] or *.tsnSwitch5.*.clock[1]\""
config *.visualizer.infoVisualizer[6].textColor "\"blue1\""
config *.visualizer.infoVisualizer[7].modules "\"*.tsnDevice2.*.clock[2] or *.tsnDevice3.*.clock[2] or *.tsnSwitch3.*.clock[2] or *.tsnSwitch4.*.clock[2] or *.tsnSwitch5.*.clock[2]\""
config *.visualizer.infoVisualizer[7].textColor "\"red4\""
config *.visualizer.infoVisualizer[8].modules "\"*.tsnDevice2.*.clock[3] or *.tsnDevice3.*.clock[3] or *.tsnSwitch3.*.clock[3] or *.tsnSwitch4.*.clock[3] or *.tsnSwitch5.*.clock[3]\""
config *.visualizer.infoVisualizer[8].textColor "\"red1\""
config *.visualizer.infoVisualizer[9].modules "\"*.tsnClock2.*.clock[0]\""
config *.visualizer.infoVisualizer[9].textColor "\"red4\""
config *.visualizer.infoVisualizer[10].modules "\"*.tsnClock2.*.clock[1]\""
config *.visualizer.infoVisualizer[10].textColor "\"red1\""
config *.visualizer.infoVisualizer[5..10].placementHint "\"bottom\""
config experiment-label DualFailover2Steps
config sim-time-limit 2s
config description abstract
config *.*.hasTimeSynchronization true
config **.tsnClock*.clock.oscillator.typename RandomDriftOscillator
config **.oscillator.changeInterval 12.5ms
config **.oscillator.driftRate "uniform(-100ppm, 100ppm)"
config **.oscillator.driftRateChange "uniform(-1ppm, 1ppm)"
config **.oscillator.driftRateChangeUpperLimit 100ppm
config **.oscillator.driftRateChangeLowerLimit -100ppm
config *.*.eth[*].bitrate 100Mbps
config *.visualizer.typename IntegratedMultiCanvasVisualizer
config *.visualizer.infoVisualizer[*].displayInfos true

vector 0 TwoMasterClocksRingGptpShowcase.tsnClock1.clock.oscillator driftRateChanged:vector ETV
attr interpolationmode sample-hold
attr recordingmode vector
attr title "Oscillator drift rate"
attr unit ppm
vector 1 TwoMasterClocksRingGptpShowcase.tsnClock1.clock timeChanged:vector ETV
attr interpolationmode linear
attr recordingmode vector
attr title "Clock time"
vector 2 TwoMasterClocksRingGptpShowcase.tsnClock1.ethernet.macHeaderInserter incomingPacketLengths:vector ETV
attr interpolationmode none
attr recordingmode vector
attr source "packetLength(merge(packetPushedIn, packetPulledIn))"
attr title "incoming packet lengths"
attr unit b
vector 3 TwoMasterClocksRingGptpShowcase.tsnClock1.ethernet.macHeaderInserter incomingDataRate:vector ETV
attr interpolationmode linear
attr recordingmode vector
attr source "throughput(merge(packetPushedIn, packetPulledIn))"
attr title "incoming data rate"
attr unit bps
vector 4 TwoMasterClocksRingGptpShowcase.tsnClock1.ethernet.macHeaderInserter outgoingPacketLengths:vector ETV
attr interpolationmode none
attr recordingmode vector
attr source "packetLength(merge(packetPushedOut, packetPulledOut))"
attr title "outgoing packet lengths"
attr unit b
vector 5 TwoMasterClocksRingGptpShowcase.tsnClock1.ethernet.macHeaderInserter outgoingDataRate:vector ETV
attr interpolationmode linear
attr recordingmode vector
attr source "throughput(merge(packetPushedOut, packetPulledOut))"
attr title "outgoing data rate"
attr unit bps
vector 6 TwoMasterClocksRingGptpShowcase.tsnClock1.ethernet.macHeaderInserter flowIncomingPacketLengths:vector ETV
attr interpolationmode none
attr recordingmode vector
attr source "packetLength(demuxFlow(merge(packetPushedIn, packetPulledIn)))"
attr title "flow specific incoming packet lengths"
attr unit b
vector 7 TwoMasterClocksRingGptpShowcase.tsnClock1.ethernet.macHeaderInserter flowIncomingDataRate:vector ETV
attr interpolationmode linear
attr recordingmode vector
attr source "throughput(demuxFlow(merge(packetPushedIn, packetPulledIn)))"
attr title "flow specific incoming data rate"
attr unit bps
vector 8 TwoMasterClocksRingGptpShowcase.tsnClock1.ethernet.macHeaderInserter flowOutgoingPacketLengths:vector ETV
attr interpolationmode none
attr recordingmode vector
attr source "packetLength(demuxFlow(merge(packetPushedOut, packetPulledOut)))"
attr title "flow specific outgoing packet lengths"
attr unit b
vector 9 TwoMasterClocksRingGptpShowcase.tsnClock1.ethernet.macHeaderInserter flowOutgoingDataRate:vector ETV
attr interpolationmode linear
attr recordingmode vector
attr source "throughput(demuxFlow(merge(packetPushedOut, packetPulledOut)))"
attr title "flow specific outgoing data rate"
attr unit bps
vector 10 TwoMasterClocksRingGptpShowcase.tsnClock1.ethernet.paddingInserter incomingPacketLengths:vector ETV
attr interpolationmode none
attr recordingmode vector
attr source "packetLength(merge(packetPushedIn, packetPulledIn))"
attr title "incoming packet lengths"
attr unit b
vector 11 TwoMasterClocksRingGptpShowcase.tsnClock1.ethernet.paddingInserter incomingDataRate:vector ETV
attr interpolationmode linear
attr recordingmode vector
attr source "throughput(merge(packetPushedIn, packetPulledIn))"
attr title "incoming data rate"
attr unit bps
vector 12 TwoMasterClocksRingGptpShowcase.tsnClock1.ethernet.paddingInserter outgoingPacketLengths:vector ETV
attr interpolationmode none
attr recordingmode vector
attr source "packetLength(merge(packetPushedOut, packetPulledOut))"
attr title "outgoing packet lengths"
attr unit b
vector 13 TwoMasterClocksRingGptpShowcase.tsnClock1.ethernet.paddingInserter outgoingDataRate:vector ETV
attr interpolationmode linear
attr recordingmode vector
attr source "throughput(merge(packetPushedOut, packetPulledOut))"
attr title "outgoing data rate"
attr unit bps
vector 14 TwoMasterClocksRingGptpShowcase.tsnClock1.ethernet.paddingInserter flowIncomingPacketLengths:vector ETV
attr interpolationmode none
attr recordingmode vector
attr source "packetLength(demuxFlow(merge(packetPushedIn, packetPulledIn)))"
attr title "flow specific incoming packet lengths"
attr unit b
vector 15 TwoMasterClocksRingGptpShowcase.tsnClock1.ethernet.paddingInserter flowIncomingDataRate:vector ETV
attr interpolationmode linear
attr recordingmode vector
attr source "throughput(demuxFlow(merge(packetPushedIn, packetPulledIn)))"
attr title "flow specific incoming data rate"
attr unit bps
vector 16 TwoMasterClocksRingGptpShowcase.tsnClock1.ethernet.paddingInserter flowOutgoingPacketLengths:vector ETV
attr interpolationmode none
attr recordingmode vector
attr source "packetLength(demuxFlow(merge(packetPushedOut, packetPulledOut)))"
attr title "flow specific outgoing packet lengths"
attr unit b
vector 17 TwoMasterClocksRingGptpShowcase.tsnClock1.ethernet.paddingInserter flowOutgoingDataRate:vector ETV
attr interpolationmode linear
attr recordingmode vector
attr source "throughput(demuxFlow(merge(packetPushedOut, packetPulledOut)))"
attr title "flow specific outgoing data rate"
attr unit bps
vector 18 TwoMasterClocksRingGptpShowcase.tsnClock1.ethernet.fcsInserter incomingPacketLengths:vector ETV
attr interpolationmode none
attr recordingmode vector
attr source "packetLength(merge(packetPushedIn, packetPulledIn))"
attr title "incoming packet lengths"
attr unit b
vector 19 TwoMasterClocksRingGptpShowcase.tsnClock1.ethernet.fcsInserter incomingDataRate:vector ETV
attr interpolationmode linear
attr recordingmode vector
attr source "throughput(merge(packetPushedIn, packetPulledIn))"
attr title "incoming data rate"
attr unit bps
vector 20 TwoMasterClocksRingGptpShowcase.tsnClock1.ethernet.fcsInserter outgoingPacketLengths:vector ETV
attr interpolationmode none
attr recordingmode vector
attr source "packetLength(merge(packetPushedOut, packetPulledOut))"
attr title "outgoing packet lengths"
attr unit b
vector 21 TwoMasterClocksRingGptpShowcase.tsnClock1.ethernet.fcsInserter outgoingDataRate:vector ETV
attr interpolationmode linear
attr recordingmode vector
attr source "throughput(merge(packetPushedOut, packetPulledOut))"
attr title "outgoing data rate"
attr unit bps
vector 22 TwoMasterClocksRingGptpShowcase.tsnClock1.ethernet.fcsInserter flowIncomingPacketLengths:vector ETV
attr interpolationmode none
attr recordingmode vector
attr source "packetLength(demuxFlow(merge(packetPushedIn, packetPulledIn)))"
attr title "flow specific incoming packet lengths"
attr unit b
vector 23 TwoMasterClocksRingGptpShowcase.tsnClock1.ethernet.fcsInserter flowIncomingDataRate:vector ETV
attr interpolationmode linear
attr recordingmode vector
attr source "throughput(demuxFlow(merge(packetPushedIn, packetPulledIn)))"
attr title "flow specific incoming data rate"
attr unit bps
vector 24 TwoMasterClocksRingGptpShowcase.tsnClock1.ethernet.fcsInserter flowOutgoingPacketLengths:vector ETV
attr interpolationmode none
attr recordingmode vector
attr source "packetLength(demuxFlow(merge(packetPushedOut, packetPulledOut)))"
attr title "flow specific outgoing packet lengths"
attr unit b
vector 25 TwoMasterClocksRingGptpShowcase.tsnClock1.ethernet.fcsInserter flowOutgoingDataRate:vector ETV
attr interpolationmode linear
attr recordingmode vector
attr source "throughput(demuxFlow(merge(packetPushedOut, packetPulledOut)))"
attr title "flow specific outgoing data rate"
attr unit bps
vector 26 TwoMasterClocksRingGptpShowcase.tsnClock1.ethernet.macHeaderChecker incomingPacketLengths:vector ETV
attr interpolationmode none
attr recordingmode vector
attr source "packetLength(merge(packetPushedIn, packetPulledIn))"
attr title "incoming packet lengths"
attr unit b
vector 27 TwoMasterClocksRingGptpShowcase.tsnClock1.ethernet.macHeaderChecker incomingDataRate:vector ETV
attr interpolationmode linear
attr recordingmode vector
attr source "throughput(merge(packetPushedIn, packetPulledIn))"
attr title "incoming data rate"
attr unit bps
vector 28 TwoMasterClocksRingGptpShowcase.tsnClock1.ethernet.macHeaderChecker outgoingPacketLengths:vector ETV
attr interpolationmode none
attr recordingmode vector
attr source "packetLength(merge(packetPushedOut, packetPulledOut))"
attr title "outgoing packet lengths"
attr unit b
vector 29 TwoMasterClocksRingGptpShowcase.tsnClock1.ethernet.macHeaderChecker outgoingDataRate:vector ETV
attr interpolationmode linear
attr recordingmode vector
attr source "throughput(merge(packetPushedOut, packetPulledOut))"
attr title "outgoing data rate"
attr unit bps
vector 30 TwoMasterClocksRingGptpShowcase.tsnClock1.ethernet.macHeaderChecker droppedPacketLengths:vector ETV
attr interpolationmode none
attr recordingmode vector
attr source packetLength(packetDropped)
attr title "dropped packet lengths"
attr unit b
vector 31 TwoMasterClocksRingGptpShowcase.tsnClock1.ethernet.macHeaderChecker droppedDataRate:vector ETV
attr interpolationmode linear
attr recordingmode vector
attr source throughput(packetDropped)
attr title "dropped data rate"
attr unit bps
vector 32 TwoMasterClocksRingGptpShowcase.tsnClock1.ethernet.macHeaderChecker flowIncomingPacketLengths:vector ETV
attr interpolationmode none
attr recordingmode vector
attr source "packetLength(demuxFlow(merge(packetPushedIn, packetPulledIn)))"
attr title "flow specific incoming packet lengths"
attr unit b
vector 33 TwoMasterClocksRingGptpShowcase.tsnClock1.ethernet.macHeaderChecker flowIncomingDataRate:vector ETV
attr interpolationmode linear
attr recordingmode vector
attr source "throughput(demuxFlow(merge(packetPushedIn, packetPulledIn)))"
attr title "flow specific incoming data rate"
attr unit bps
vector 34 TwoMasterClocksRingGptpShowcase.tsnClock1.ethernet.macHeaderChecker flowOutgoingPacketLengths:vector ETV
attr interpolationmode none
attr recordingmode vector
attr source "packetLength(demuxFlow(merge(packetPushedOut, packetPulledOut)))"
attr title "flow specific outgoing packet lengths"
attr unit b
vector 35 TwoMasterClocksRingGptpShowcase.tsnClock1.ethernet.macHeaderChecker flowOutgoingDataRate:vector ETV
attr interpolationmode linear
attr recordingmode vector
attr source "throughput(demuxFlow(merge(packetPushedOut, packetPulledOut)))"
attr title "flow specific outgoing data rate"
attr unit bps
vector 36 TwoMasterClocksRingGptpShowcase.tsnClock1.ethernet.macHeaderChecker flowDroppedPacketLengths:vector ETV
attr interpolationmode none
attr recordingmode vector
attr source packetLength(demuxFlow(packetDropped))
attr title "flow specific dropped packet lengths"
attr unit b
vector 37 TwoMasterClocksRingGptpShowcase.tsnClock1.ethernet.macHeaderChecker flowDroppedDataRate:vector ETV
attr interpolationmode linear
attr recordingmode vector
attr source throughput(demuxFlow(packetDropped))
attr title "flow specific dropped data rate"
attr unit bps
vector 38 TwoMasterClocksRingGptpShowcase.tsnClock1.ethernet.fcsChecker incomingPacketLengths:vector ETV
attr interpolationmode none
attr recordingmode vector
attr source "packetLength(merge(packetPushedIn, packetPulledIn))"
attr title "incoming packet lengths"
attr unit b
vector 39 TwoMasterClocksRingGptpShowcase.tsnClock1.ethernet.fcsChecker incomingDataRate:vector ETV
attr interpolationmode linear
attr recordingmode vector
attr source "throughput(merge(packetPushedIn, packetPulledIn))"
attr title "incoming data rate"
attr unit bps
vector 40 TwoMasterClocksRingGptpShowcase.tsnClock1.ethernet.fcsChecker outgoingPacketLengths:vector ETV
attr interpolationmode none
attr recordingmode vector
attr source "packetLength(merge(packetPushedOut, packetPulledOut))"
attr title "outgoing packet lengths"
attr unit b
vector 41 TwoMasterClocksRingGptpShowcase.tsnClock1.ethernet.fcsChecker outgoingDataRate:vector ETV
attr interpolationmode linear
attr recordingmode vector
attr source "throughput(merge(packetPushedOut, packetPulledOut))"
attr title "outgoing data rate"
attr unit bps
vector 42 TwoMasterClocksRingGptpShowcase.tsnClock1.ethernet.fcsChecker droppedPacketLengths:vector ETV
attr interpolationmode none
attr recordingmode vector
attr source packetLength(packetDropped)
attr title "dropped packet lengths"
attr unit b
vector 43 TwoMasterClocksRingGptpShowcase.tsnClock1.ethernet.fcsChecker droppedDataRate:vector ETV
attr interpolationmode linear
attr recordingmode vector
attr source throughput(packetDropped)
attr title "dropped data rate"
attr unit bps
vector 44 TwoMasterClocksRingGptpShowcase.tsnClock1.ethernet.fcsChecker flowIncomingPacketLengths:vector ETV
attr interpolationmode none
attr recordingmode vector
attr source "packetLength(demuxFlow(merge(packetPushedIn, packetPulledIn)))"
attr title "flow specific incoming packet lengths"
attr unit b
vector 45 TwoMasterClocksRingGptpShowcase.tsnClock1.ethernet.fcsChecker flowIncomingDataRate:vector ETV
attr interpolationmode linear
attr recordingmode vector
attr source "throughput(demuxFlow(merge(packetPushedIn, packetPulledIn)))"
attr title "flow specific incoming data rate"
attr unit bps
vector 46 TwoMasterClocksRingGptpShowcase.tsnClock1.ethernet.fcsChecker flowOutgoingPacketLengths:vector ETV
attr interpolationmode none
attr recordingmode vector
attr source "packetLength(demuxFlow(merge(packetPushedOut, packetPulledOut)))"
attr title "flow specific outgoing packet lengths"
attr unit b
vector 47 TwoMasterClocksRingGptpShowcase.tsnClock1.ethernet.fcsChecker flowOutgoingDataRate:vector ETV
attr interpolationmode linear
attr recordingmode vector
attr source "throughput(demuxFlow(merge(packetPushedOut, packetPulledOut)))"
attr title "flow specific outgoing data rate"
attr unit bps
vector 48 TwoMasterClocksRingGptpShowcase.tsnClock1.ethernet.fcsChecker flowDroppedPacketLengths:vector ETV
attr interpolationmode none
attr recordingmode vector
attr source packetLength(demuxFlow(packetDropped))
attr title "flow specific dropped packet lengths"
attr unit b
vector 49 TwoMasterClocksRingGptpShowcase.tsnClock1.ethernet.fcsChecker flowDroppedDataRate:vector ETV
attr interpolationmode linear
attr recordingmode vector
attr source throughput(demuxFlow(packetDropped))
attr title "flow specific dropped data rate"
attr unit bps
vector 50 TwoMasterClocksRingGptpShowcase.tsnClock1.lo[0].lo rcvdPkFromHl:vector(packetBytes) ETV
attr interpolationmode none
attr recordingmode vector(packetBytes)
attr source packetReceivedFromUpper
attr title "packets received from higher layer, packetBytes"
vector 51 TwoMasterClocksRingGptpShowcase.tsnClock1.lo[0].lo passedUpPk:vector(packetBytes) ETV
attr interpolationmode none
attr recordingmode vector(packetBytes)
attr source packetSentToUpper
attr title "packets passed to higher layer, packetBytes"
vector 52 TwoMasterClocksRingGptpShowcase.tsnClock1.lo[0] packetDropInterfaceDown:vector(packetBytes) ETV
attr interpolationmode none
attr recordingmode vector(packetBytes)
attr source packetDropReasonIsInterfaceDown(packetDropped)
attr title "packet drops: interface down, packetBytes"
vector 53 TwoMasterClocksRingGptpShowcase.tsnClock1.lo[0] packetDropNoCarrier:vector(packetBytes) ETV
attr interpolationmode none
attr recordingmode vector(packetBytes)
attr source packetDropReasonIsNoCarrier(packetDropped)
attr title "packet drops: no carrier, packetBytes"
vector 54 TwoMasterClocksRingGptpShowcase.tsnClock1.eth[0].macLayer.queue queueLength:vector ETV
attr autoWarmupFilter false
attr interpolationmode sample-hold
attr recordingmode vector
attr source "warmup(atomic(constant0(packetPushEnded) + count(packetPushStarted) - count(packetPulled) - count(packetRemoved) - count(packetDropped)))"
attr title "queue length"
attr unit pk
vector 55 TwoMasterClocksRingGptpShowcase.tsnClock1.eth[0].macLayer.queue queueBitLength:vector ETV
attr autoWarmupFilter false
attr interpolationmode sample-hold
attr recordingmode vector
attr source "warmup(atomic(constant0(packetPushEnded) + sum(packetLength(packetPushStarted)) - sum(packetLength(packetPulled)) - sum(packetLength(packetRemoved)) - sum(packetLength(packetDropped))))"
attr title "queue bit length"
attr unit b
vector 56 TwoMasterClocksRingGptpShowcase.tsnClock1.eth[0].macLayer.queue queueingTime:vector ETV
attr interpolationmode none
attr recordingmode vector
attr source queueingTime(packetPulled)
attr title "queueing times"
attr unit s
vector 57 TwoMasterClocksRingGptpShowcase.tsnClock1.eth[0].macLayer.queue incomingPacketLengths:vector ETV
attr interpolationmode none
attr recordingmode vector
attr source packetLength(packetPushStarted)
attr title "incoming packet lengths"
attr unit b
vector 58 TwoMasterClocksRingGptpShowcase.tsnClock1.eth[0].macLayer.queue incomingDataRate:vector ETV
attr interpolationmode linear
attr recordingmode vector
attr source throughput(packetPushStarted)
attr title "incoming datarate"
attr unit bps
vector 59 TwoMasterClocksRingGptpShowcase.tsnClock1.eth[0].macLayer.queue outgoingPacketLengths:vector ETV
attr interpolationmode none
attr recordingmode vector
attr source packetLength(packetPulled)
attr title "outgoing packet lengths"
attr unit b
vector 60 TwoMasterClocksRingGptpShowcase.tsnClock1.eth[0].macLayer.queue outgoingDataRate:vector ETV
attr interpolationmode linear
attr recordingmode vector
attr source throughput(packetPulled)
attr title "outgoing datarate"
attr unit bps
vector 61 TwoMasterClocksRingGptpShowcase.tsnClock1.eth[0].macLayer.queue droppedPacketLengthsQueueOverflow:vector ETV
attr interpolationmode none
attr recordingmode vector
attr source packetLength(packetDropReasonIsQueueOverflow(packetDropped))
attr title "dropped packet lengths: queue overflow"
attr unit b
vector 62 TwoMasterClocksRingGptpShowcase.tsnClock1.eth[0].macLayer.queue flowQueueingTime:vector ETV
attr interpolationmode none
attr recordingmode vector
attr source queueingTime(demuxFlow(packetPulled))
attr title "flow queueing times"
attr unit s
vector 63 TwoMasterClocksRingGptpShowcase.tsnClock1.eth[0].macLayer.queue flowIncomingDataRate:vector ETV
attr interpolationmode linear
attr recordingmode vector
attr source throughput(flowPacketLength(demuxFlow(packetPushStarted)))
attr title "flow specific incoming data rate"
attr unit bps
vector 64 TwoMasterClocksRingGptpShowcase.tsnClock1.eth[0].macLayer.queue flowOutgoingDataRate:vector ETV
attr interpolationmode linear
attr recordingmode vector
attr source throughput(flowPacketLength(demuxFlow(packetPulled)))
attr title "flow specific outgoing data rate"
attr unit bps
vector 65 TwoMasterClocksRingGptpShowcase.tsnClock1.eth[0].macLayer.server incomingPacketLengths:vector ETV
attr interpolationmode none
attr recordingmode vector
attr source packetLength(packetPulled)
attr title "incoming packet lengths"
attr unit b
vector 66 TwoMasterClocksRingGptpShowcase.tsnClock1.eth[0].macLayer.server incomingDataRate:vector ETV
attr interpolationmode linear
attr recordingmode vector
attr source throughput(packetPulled)
attr title "incoming datarate"
attr unit bps
vector 67 TwoMasterClocksRingGptpShowcase.tsnClock1.eth[0].macLayer.server outgoingPacketLengths:vector ETV
attr interpolationmode none
attr recordingmode vector
attr source packetLength(packetPushed)
attr title "outgoing packet lengths"
attr unit b
vector 68 TwoMasterClocksRingGptpShowcase.tsnClock1.eth[0].macLayer.server outgoingDataRate:vector ETV
attr interpolationmode linear
attr recordingmode vector
attr source throughput(packetPushed)
attr title "outgoing datarate"
attr unit bps
vector 69 TwoMasterClocksRingGptpShowcase.tsnClock1.eth[0].macLayer.outboundEmitter incomingPacketLengths:vector ETV
attr interpolationmode none
attr recordingmode vector
attr source "packetLength(merge(packetPushedIn, packetPulledIn))"
attr title "incoming packet lengths"
attr unit b
vector 70 TwoMasterClocksRingGptpShowcase.tsnClock1.eth[0].macLayer.outboundEmitter incomingDataRate:vector ETV
attr interpolationmode linear
attr recordingmode vector
attr source "throughput(merge(packetPushedIn, packetPulledIn))"
attr title "incoming data rate"
attr unit bps
vector 71 TwoMasterClocksRingGptpShowcase.tsnClock1.eth[0].macLayer.outboundEmitter outgoingPacketLengths:vector ETV
attr interpolationmode none
attr recordingmode vector
attr source "packetLength(merge(packetPushedOut, packetPulledOut))"
attr title "outgoing packet lengths"
attr unit b
vector 72 TwoMasterClocksRingGptpShowcase.tsnClock1.eth[0].macLayer.outboundEmitter outgoingDataRate:vector ETV
attr interpolationmode linear
attr recordingmode vector
attr source "throughput(merge(packetPushedOut, packetPulledOut))"
attr title "outgoing data rate"
attr unit bps
vector 73 TwoMasterClocksRingGptpShowcase.tsnClock1.eth[0].macLayer.outboundEmitter flowIncomingPacketLengths:vector ETV
attr interpolationmode none
attr recordingmode vector
attr source "packetLength(demuxFlow(merge(packetPushedIn, packetPulledIn)))"
attr title "flow specific incoming packet lengths"
attr unit b
vector 74 TwoMasterClocksRingGptpShowcase.tsnClock1.eth[0].macLayer.outboundEmitter flowIncomingDataRate:vector ETV
attr interpolationmode linear
attr recordingmode vector
attr source "throughput(demuxFlow(merge(packetPushedIn, packetPulledIn)))"
attr title "flow specific incoming data rate"
attr unit bps
vector 75 TwoMasterClocksRingGptpShowcase.tsnClock1.eth[0].macLayer.outboundEmitter flowOutgoingPacketLengths:vector ETV
attr interpolationmode none
attr recordingmode vector
attr source "packetLength(demuxFlow(merge(packetPushedOut, packetPulledOut)))"
attr title "flow specific outgoing packet lengths"
attr unit b
vector 76 TwoMasterClocksRingGptpShowcase.tsnClock1.eth[0].macLayer.outboundEmitter flowOutgoingDataRate:vector ETV
attr interpolationmode linear
attr recordingmode vector
attr source "throughput(demuxFlow(merge(packetPushedOut, packetPulledOut)))"
attr title "flow specific outgoing data rate"
attr unit bps
vector 77 TwoMasterClocksRingGptpShowcase.tsnClock1.eth[0].macLayer.fcsChecker incomingPacketLengths:vector ETV
attr interpolationmode none
attr recordingmode vector
attr source "packetLength(merge(packetPushedIn, packetPulledIn))"
attr title "incoming packet lengths"
attr unit b
vector 78 TwoMasterClocksRingGptpShowcase.tsnClock1.eth[0].macLayer.fcsChecker incomingDataRate:vector ETV
attr interpolationmode linear
attr recordingmode vector
attr source "throughput(merge(packetPushedIn, packetPulledIn))"
attr title "incoming data rate"
attr unit bps
vector 79 TwoMasterClocksRingGptpShowcase.tsnClock1.eth[0].macLayer.fcsChecker outgoingPacketLengths:vector ETV
attr interpolationmode none
attr recordingmode vector
attr source "packetLength(merge(packetPushedOut, packetPulledOut))"
attr title "outgoing packet lengths"
attr unit b
vector 80 TwoMasterClocksRingGptpShowcase.tsnClock1.eth[0].macLayer.fcsChecker outgoingDataRate:vector ETV
attr interpolationmode linear
attr recordingmode vector
attr source "throughput(merge(packetPushedOut, packetPulledOut))"
attr title "outgoing data rate"
attr unit bps
vector 81 TwoMasterClocksRingGptpShowcase.tsnClock1.eth[0].macLayer.fcsChecker droppedPacketLengths:vector ETV
attr interpolationmode none
attr recordingmode vector
attr source packetLength(packetDropped)
attr title "dropped packet lengths"
attr unit b
vector 82 TwoMasterClocksRingGptpShowcase.tsnClock1.eth[0].macLayer.fcsChecker droppedDataRate:vector ETV
attr interpolationmode linear
attr recordingmode vector
attr source throughput(packetDropped)
attr title "dropped data rate"
attr unit bps
vector 83 TwoMasterClocksRingGptpShowcase.tsnClock1.eth[0].macLayer.fcsChecker flowIncomingPacketLengths:vector ETV
attr interpolationmode none
attr recordingmode vector
attr source "packetLength(demuxFlow(merge(packetPushedIn, packetPulledIn)))"
attr title "flow specific incoming packet lengths"
attr unit b
vector 84 TwoMasterClocksRingGptpShowcase.tsnClock1.eth[0].macLayer.fcsChecker flowIncomingDataRate:vector ETV
attr interpolationmode linear
attr recordingmode vector
attr source "throughput(demuxFlow(merge(packetPushedIn, packetPulledIn)))"
attr title "flow specific incoming data rate"
attr unit bps
vector 85 TwoMasterClocksRingGptpShowcase.tsnClock1.eth[0].macLayer.fcsChecker flowOutgoingPacketLengths:vector ETV
attr interpolationmode none
attr recordingmode vector
attr source "packetLength(demuxFlow(merge(packetPushedOut, packetPulledOut)))"
attr title "flow specific outgoing packet lengths"
attr unit b
vector 86 TwoMasterClocksRingGptpShowcase.tsnClock1.eth[0].macLayer.fcsChecker flowOutgoingDataRate:vector ETV
attr interpolationmode linear
attr recordingmode vector
attr source "throughput(demuxFlow(merge(packetPushedOut, packetPulledOut)))"
attr title "flow specific outgoing data rate"
attr unit bps
vector 87 TwoMasterClocksRingGptpShowcase.tsnClock1.eth[0].macLayer.fcsChecker flowDroppedPacketLengths:vector ETV
attr interpolationmode none
attr recordingmode vector
attr source packetLength(demuxFlow(packetDropped))
attr title "flow specific dropped packet lengths"
attr unit b
vector 88 TwoMasterClocksRingGptpShowcase.tsnClock1.eth[0].macLayer.fcsChecker flowDroppedDataRate:vector ETV
attr interpolationmode linear
attr recordingmode vector
attr source throughput(demuxFlow(packetDropped))
attr title "flow specific dropped data rate"
attr unit bps
vector 89 TwoMasterClocksRingGptpShowcase.tsnClock1.eth[0].macLayer.inboundEmitter incomingPacketLengths:vector ETV
attr interpolationmode none
attr recordingmode vector
attr source "packetLength(merge(packetPushedIn, packetPulledIn))"
attr title "incoming packet lengths"
attr unit b
vector 90 TwoMasterClocksRingGptpShowcase.tsnClock1.eth[0].macLayer.inboundEmitter incomingDataRate:vector ETV
attr interpolationmode linear
attr recordingmode vector
attr source "throughput(merge(packetPushedIn, packetPulledIn))"
attr title "incoming data rate"
attr unit bps
vector 91 TwoMasterClocksRingGptpShowcase.tsnClock1.eth[0].macLayer.inboundEmitter outgoingPacketLengths:vector ETV
attr interpolationmode none
attr recordingmode vector
attr source "packetLength(merge(packetPushedOut, packetPulledOut))"
attr title "outgoing packet lengths"
attr unit b
vector 92 TwoMasterClocksRingGptpShowcase.tsnClock1.eth[0].macLayer.inboundEmitter outgoingDataRate:vector ETV
attr interpolationmode linear
attr recordingmode vector
attr source "throughput(merge(packetPushedOut, packetPulledOut))"
attr title "outgoing data rate"
attr unit bps
vector 93 TwoMasterClocksRingGptpShowcase.tsnClock1.eth[0].macLayer.inboundEmitter flowIncomingPacketLengths:vector ETV
attr interpolationmode none
attr recordingmode vector
attr source "packetLength(demuxFlow(merge(packetPushedIn, packetPulledIn)))"
attr title "flow specific incoming packet lengths"
attr unit b
vector 94 TwoMasterClocksRingGptpShowcase.tsnClock1.eth[0].macLayer.inboundEmitter flowIncomingDataRate:vector ETV
attr interpolationmode linear
attr recordingmode vector
attr source "throughput(demuxFlow(merge(packetPushedIn, packetPulledIn)))"
attr title "flow specific incoming data rate"
attr unit bps
vector 95 TwoMasterClocksRingGptpShowcase.tsnClock1.eth[0].macLayer.inboundEmitter flowOutgoingPacketLengths:vector ETV
attr interpolationmode none
attr recordingmode vector
attr source "packetLength(demuxFlow(merge(packetPushedOut, packetPulledOut)))"
attr title "flow specific outgoing packet lengths"
attr unit b
vector 96 TwoMasterClocksRingGptpShowcase.tsnClock1.eth[0].macLayer.inboundEmitter flowOutgoingDataRate:vector ETV
attr interpolationmode linear
attr recordingmode vector
attr source "throughput(demuxFlow(merge(packetPushedOut, packetPulledOut)))"
attr title "flow specific outgoing data rate"
attr unit bps
vector 97 TwoMasterClocksRingGptpShowcase.tsnClock1.eth[0].phyLayer.phyHeaderInserter incomingPacketLengths:vector ETV
attr interpolationmode none
attr recordingmode vector
attr source "packetLength(merge(packetPushedIn, packetPulledIn))"
attr title "incoming packet lengths"
attr unit b
vector 98 TwoMasterClocksRingGptpShowcase.tsnClock1.eth[0].phyLayer.phyHeaderInserter incomingDataRate:vector ETV
attr interpolationmode linear
attr recordingmode vector
attr source "throughput(merge(packetPushedIn, packetPulledIn))"
attr title "incoming data rate"
attr unit bps
vector 99 TwoMasterClocksRingGptpShowcase.tsnClock1.eth[0].phyLayer.phyHeaderInserter outgoingPacketLengths:vector ETV
attr interpolationmode none
attr recordingmode vector
attr source "packetLength(merge(packetPushedOut, packetPulledOut))"
attr title "outgoing packet lengths"
attr unit b
vector 100 TwoMasterClocksRingGptpShowcase.tsnClock1.eth[0].phyLayer.phyHeaderInserter outgoingDataRate:vector ETV
attr interpolationmode linear
attr recordingmode vector
attr source "throughput(merge(packetPushedOut, packetPulledOut))"
attr title "outgoing data rate"
attr unit bps
vector 101 TwoMasterClocksRingGptpShowcase.tsnClock1.eth[0].phyLayer.phyHeaderInserter flowIncomingPacketLengths:vector ETV
attr interpolationmode none
attr recordingmode vector
attr source "packetLength(demuxFlow(merge(packetPushedIn, packetPulledIn)))"
attr title "flow specific incoming packet lengths"
attr unit b
vector 102 TwoMasterClocksRingGptpShowcase.tsnClock1.eth[0].phyLayer.phyHeaderInserter flowIncomingDataRate:vector ETV
attr interpolationmode linear
attr recordingmode vector
attr source "throughput(demuxFlow(merge(packetPushedIn, packetPulledIn)))"
attr title "flow specific incoming data rate"
attr unit bps
vector 103 TwoMasterClocksRingGptpShowcase.tsnClock1.eth[0].phyLayer.phyHeaderInserter flowOutgoingPacketLengths:vector ETV
attr interpolationmode none
attr recordingmode vector
attr source "packetLength(demuxFlow(merge(packetPushedOut, packetPulledOut)))"
attr title "flow specific outgoing packet lengths"
attr unit b
vector 104 TwoMasterClocksRingGptpShowcase.tsnClock1.eth[0].phyLayer.phyHeaderInserter flowOutgoingDataRate:vector ETV
attr interpolationmode linear
attr recordingmode vector
attr source "throughput(demuxFlow(merge(packetPushedOut, packetPulledOut)))"
attr title "flow specific outgoing data rate"
attr unit bps
vector 105 TwoMasterClocksRingGptpShowcase.tsnClock1.eth[0].phyLayer.interFrameGapInserter interpacketGap:vector ETV
attr interpolationmode sample-hold
attr recordingmode vector
attr source "count(interpacketGapStarted) - count(interpacketGapEnded)"
attr title "interpacket gap state"
attr type int
vector 106 TwoMasterClocksRingGptpShowcase.tsnClock1.eth[0].phyLayer.outboundEmitter incomingPacketLengths:vector ETV
attr interpolationmode none
attr recordingmode vector
attr source "packetLength(merge(packetPushedIn, packetPulledIn))"
attr title "incoming packet lengths"
attr unit b
vector 107 TwoMasterClocksRingGptpShowcase.tsnClock1.eth[0].phyLayer.outboundEmitter incomingDataRate:vector ETV
attr interpolationmode linear
attr recordingmode vector
attr source "throughput(merge(packetPushedIn, packetPulledIn))"
attr title "incoming data rate"
attr unit bps
vector 108 TwoMasterClocksRingGptpShowcase.tsnClock1.eth[0].phyLayer.outboundEmitter outgoingPacketLengths:vector ETV
attr interpolationmode none
attr recordingmode vector
attr source "packetLength(merge(packetPushedOut, packetPulledOut))"
attr title "outgoing packet lengths"
attr unit b
vector 109 TwoMasterClocksRingGptpShowcase.tsnClock1.eth[0].phyLayer.outboundEmitter outgoingDataRate:vector ETV
attr interpolationmode linear
attr recordingmode vector
attr source "throughput(merge(packetPushedOut, packetPulledOut))"
attr title "outgoing data rate"
attr unit bps
vector 110 TwoMasterClocksRingGptpShowcase.tsnClock1.eth[0].phyLayer.outboundEmitter flowIncomingPacketLengths:vector ETV
attr interpolationmode none
attr recordingmode vector
attr source "packetLength(demuxFlow(merge(packetPushedIn, packetPulledIn)))"
attr title "flow specific incoming packet lengths"
attr unit b
vector 111 TwoMasterClocksRingGptpShowcase.tsnClock1.eth[0].phyLayer.outboundEmitter flowIncomingDataRate:vector ETV
attr interpolationmode linear
attr recordingmode vector
attr source "throughput(demuxFlow(merge(packetPushedIn, packetPulledIn)))"
attr title "flow specific incoming data rate"
attr unit bps
vector 112 TwoMasterClocksRingGptpShowcase.tsnClock1.eth[0].phyLayer.outboundEmitter flowOutgoingPacketLengths:vector ETV
attr interpolationmode none
attr recordingmode vector
attr source "packetLength(demuxFlow(merge(packetPushedOut, packetPulledOut)))"
attr title "flow specific outgoing packet lengths"
attr unit b
vector 113 TwoMasterClocksRingGptpShowcase.tsnClock1.eth[0].phyLayer.outboundEmitter flowOutgoingDataRate:vector ETV
attr interpolationmode linear
attr recordingmode vector
attr source "throughput(demuxFlow(merge(packetPushedOut, packetPulledOut)))"
attr title "flow specific outgoing data rate"
attr unit bps
vector 114 TwoMasterClocksRingGptpShowcase.tsnClock1.eth[0].phyLayer.transmitter transmitting:vector ETV
attr interpolationmode sample-hold
attr recordingmode vector
attr source "count(transmissionStarted) - count(transmissionEnded)"
attr title "transmitting state"
attr type int
vector 115 TwoMasterClocksRingGptpShowcase.tsnClock1.eth[0].phyLayer.transmitter throughput:vector ETV
attr interpolationmode linear
attr recordingmode vector
attr source throughput(transmissionEnded)
attr title throughput
attr unit bps
vector 116 TwoMasterClocksRingGptpShowcase.tsnClock1.eth[0].phyLayer.transmitter utilization:vector ETV
attr interpolationmode linear
attr recordingmode vector
attr source "100 * utilization(count(transmissionStarted) - count(transmissionEnded))"
attr title utilization
attr unit %
vector 117 TwoMasterClocksRingGptpShowcase.tsnClock1.eth[0].phyLayer.transmitter transmissionTime:vector ETV
attr interpolationmode none
attr recordingmode vector
attr source packetDuration(transmissionEnded)
attr title "transmission time"
attr unit s
vector 118 TwoMasterClocksRingGptpShowcase.tsnClock1.eth[0].phyLayer.transmitter flowTransmissionTime:vector ETV
attr interpolationmode none
attr recordingmode vector
attr source packetDuration(demuxFlow(transmissionEnded))
attr title "flow transmission time"
attr unit s
vector 119 TwoMasterClocksRingGptpShowcase.tsnClock1.eth[0].phyLayer.phyHeaderChecker incomingPacketLengths:vector ETV
attr interpolationmode none
attr recordingmode vector
attr source "packetLength(merge(packetPushedIn, packetPulledIn))"
attr title "incoming packet lengths"
attr unit b
vector 120 TwoMasterClocksRingGptpShowcase.tsnClock1.eth[0].phyLayer.phyHeaderChecker incomingDataRate:vector ETV
attr interpolationmode linear
attr recordingmode vector
attr source "throughput(merge(packetPushedIn, packetPulledIn))"
attr title "incoming data rate"
attr unit bps
vector 121 TwoMasterClocksRingGptpShowcase.tsnClock1.eth[0].phyLayer.phyHeaderChecker outgoingPacketLengths:vector ETV
attr interpolationmode none
attr recordingmode vector
attr source "packetLength(merge(packetPushedOut, packetPulledOut))"
attr title "outgoing packet lengths"
attr unit b
vector 122 TwoMasterClocksRingGptpShowcase.tsnClock1.eth[0].phyLayer.phyHeaderChecker outgoingDataRate:vector ETV
attr interpolationmode linear
attr recordingmode vector
attr source "throughput(merge(packetPushedOut, packetPulledOut))"
attr title "outgoing data rate"
attr unit bps
vector 123 TwoMasterClocksRingGptpShowcase.tsnClock1.eth[0].phyLayer.phyHeaderChecker droppedPacketLengths:vector ETV
attr interpolationmode none
attr recordingmode vector
attr source packetLength(packetDropped)
attr title "dropped packet lengths"
attr unit b
vector 124 TwoMasterClocksRingGptpShowcase.tsnClock1.eth[0].phyLayer.phyHeaderChecker droppedDataRate:vector ETV
attr interpolationmode linear
attr recordingmode vector
attr source throughput(packetDropped)
attr title "dropped data rate"
attr unit bps
vector 125 TwoMasterClocksRingGptpShowcase.tsnClock1.eth[0].phyLayer.phyHeaderChecker flowIncomingPacketLengths:vector ETV
attr interpolationmode none
attr recordingmode vector
attr source "packetLength(demuxFlow(merge(packetPushedIn, packetPulledIn)))"
attr title "flow specific incoming packet lengths"
attr unit b
vector 126 TwoMasterClocksRingGptpShowcase.tsnClock1.eth[0].phyLayer.phyHeaderChecker flowIncomingDataRate:vector ETV
attr interpolationmode linear
attr recordingmode vector
attr source "throughput(demuxFlow(merge(packetPushedIn, packetPulledIn)))"
attr title "flow specific incoming data rate"
attr unit bps
vector 127 TwoMasterClocksRingGptpShowcase.tsnClock1.eth[0].phyLayer.phyHeaderChecker flowOutgoingPacketLengths:vector ETV
attr interpolationmode none
attr recordingmode vector
attr source "packetLength(demuxFlow(merge(packetPushedOut, packetPulledOut)))"
attr title "flow specific outgoing packet lengths"
attr unit b
vector 128 TwoMasterClocksRingGptpShowcase.tsnClock1.eth[0].phyLayer.phyHeaderChecker flowOutgoingDataRate:vector ETV
attr interpolationmode linear
attr recordingmode vector
attr source "throughput(demuxFlow(merge(packetPushedOut, packetPulledOut)))"
attr title "flow specific outgoing data rate"
attr unit bps
vector 129 TwoMasterClocksRingGptpShowcase.tsnClock1.eth[0].phyLayer.phyHeaderChecker flowDroppedPacketLengths:vector ETV
attr interpolationmode none
attr recordingmode vector
attr source packetLength(demuxFlow(packetDropped))
attr title "flow specific dropped packet lengths"
attr unit b
vector 130 TwoMasterClocksRingGptpShowcase.tsnClock1.eth[0].phyLayer.phyHeaderChecker flowDroppedDataRate:vector ETV
attr interpolationmode linear
attr recordingmode vector
attr source throughput(demuxFlow(packetDropped))
attr title "flow specific dropped data rate"
attr unit bps
vector 131 TwoMasterClocksRingGptpShowcase.tsnClock1.eth[0].phyLayer.inboundEmitter incomingPacketLengths:vector ETV
attr interpolationmode none
attr recordingmode vector
attr source "packetLength(merge(packetPushedIn, packetPulledIn))"
attr title "incoming packet lengths"
attr unit b
vector 132 TwoMasterClocksRingGptpShowcase.tsnClock1.eth[0].phyLayer.inboundEmitter incomingDataRate:vector ETV
attr interpolationmode linear
attr recordingmode vector
attr source "throughput(merge(packetPushedIn, packetPulledIn))"
attr title "incoming data rate"
attr unit bps
vector 133 TwoMasterClocksRingGptpShowcase.tsnClock1.eth[0].phyLayer.inboundEmitter outgoingPacketLengths:vector ETV
attr interpolationmode none
attr recordingmode vector
attr source "packetLength(merge(packetPushedOut, packetPulledOut))"
attr title "outgoing packet lengths"
attr unit b
vector 134 TwoMasterClocksRingGptpShowcase.tsnClock1.eth[0].phyLayer.inboundEmitter outgoingDataRate:vector ETV
attr interpolationmode linear
attr recordingmode vector
attr source "throughput(merge(packetPushedOut, packetPulledOut))"
attr title "outgoing data rate"
attr unit bps
vector 135 TwoMasterClocksRingGptpShowcase.tsnClock1.eth[0].phyLayer.inboundEmitter flowIncomingPacketLengths:vector ETV
attr interpolationmode none
attr recordingmode vector
attr source "packetLength(demuxFlow(merge(packetPushedIn, packetPulledIn)))"
attr title "flow specific incoming packet lengths"
attr unit b
vector 136 TwoMasterClocksRingGptpShowcase.tsnClock1.eth[0].phyLayer.inboundEmitter flowIncomingDataRate:vector ETV
attr interpolationmode linear
attr recordingmode vector
attr source "throughput(demuxFlow(merge(packetPushedIn, packetPulledIn)))"
attr title "flow specific incoming data rate"
attr unit bps
vector 137 TwoMasterClocksRingGptpShowcase.tsnClock1.eth[0].phyLayer.inboundEmitter flowOutgoingPacketLengths:vector ETV
attr interpolationmode none
attr recordingmode vector
attr source "packetLength(demuxFlow(merge(packetPushedOut, packetPulledOut)))"
attr title "flow specific outgoing packet lengths"
attr unit b
vector 138 TwoMasterClocksRingGptpShowcase.tsnClock1.eth[0].phyLayer.inboundEmitter flowOutgoingDataRate:vector ETV
attr interpolationmode linear
attr recordingmode vector
attr source "throughput(demuxFlow(merge(packetPushedOut, packetPulledOut)))"
attr title "flow specific outgoing data rate"
attr unit bps
vector 139 TwoMasterClocksRingGptpShowcase.tsnClock1.eth[0].phyLayer.receiver throughput:vector ETV
attr interpolationmode linear
attr recordingmode vector
attr source throughput(receptionEnded)
attr title throughput
attr unit bps
vector 140 TwoMasterClocksRingGptpShowcase.tsnClock1.eth[0].phyLayer.receiver receptionTime:vector ETV
attr interpolationmode none
attr recordingmode vector
attr source packetDuration(receptionEnded)
attr title "reception time"
attr unit s
vector 141 TwoMasterClocksRingGptpShowcase.tsnClock1.eth[0].phyLayer.receiver flowReceptionTime:vector ETV
attr interpolationmode none
attr recordingmode vector
attr source packetDuration(demuxFlow(receptionEnded))
attr title "flow reception time"
attr unit s
vector 142 TwoMasterClocksRingGptpShowcase.tsnClock1.eth[0] packetDropInterfaceDown:vector(packetBytes) ETV
attr interpolationmode none
attr recordingmode vector(packetBytes)
attr source packetDropReasonIsInterfaceDown(packetDropped)
attr title "packet drops: interface down, packetBytes"
vector 143 TwoMasterClocksRingGptpShowcase.tsnClock1.eth[0] packetDropNoCarrier:vector(packetBytes) ETV
attr interpolationmode none
attr recordingmode vector(packetBytes)
attr source packetDropReasonIsNoCarrier(packetDropped)
attr title "packet drops: no carrier, packetBytes"
vector 144 TwoMasterClocksRingGptpShowcase.tsnClock1.ipv4.ip packetDropAddressResolutionFailed:vector(packetBytes) ETV
attr interpolationmode none
attr recordingmode vector(packetBytes)
attr source packetDropReasonIsAddressResolutionFailed(packetDropped)
attr title "packet drop: address resolution failed, packetBytes"
vector 145 TwoMasterClocksRingGptpShowcase.tsnClock1.ipv4.ip packetDropHopLimitReached:vector(packetBytes) ETV
attr interpolationmode none
attr recordingmode vector(packetBytes)
attr source packetDropReasonIsHopLimitReached(packetDropped)
attr title "packet drop: hop limit reached, packetBytes"
vector 146 TwoMasterClocksRingGptpShowcase.tsnClock1.ipv4.ip packetDropForwardingDisabled:vector(packetBytes) ETV
attr interpolationmode none
attr recordingmode vector(packetBytes)
attr source packetDropReasonIsForwardingDisabled(packetDropped)
attr title "packet drop: forwarding disabled, packetBytes"
vector 147 TwoMasterClocksRingGptpShowcase.tsnClock1.ipv4.ip packetDropNoInterfaceFound:vector(packetBytes) ETV
attr interpolationmode none
attr recordingmode vector(packetBytes)
attr source packetDropReasonIsNoInterfaceFound(packetDropped)
attr title "packet drop: no interface found, packetBytes"
vector 148 TwoMasterClocksRingGptpShowcase.tsnClock1.ipv4.ip packetDropNoRouteFound:vector(packetBytes) ETV
attr interpolationmode none
attr recordingmode vector(packetBytes)
attr source packetDropReasonIsNoRouteFound(packetDropped)
attr title "packet drop: no route found, packetBytes"
vector 149 TwoMasterClocksRingGptpShowcase.tsnClock1.ipv4.ip packetDropUndefined:vector(packetBytes) ETV
attr interpolationmode none
attr recordingmode vector(packetBytes)
attr source packetDropReasonIsUndefined(packetDropped)
attr title "packet drop: undefined, packetBytes"
vector 150 TwoMasterClocksRingGptpShowcase.tsnClock1.udp packetSent:vector(packetBytes) ETV
attr interpolationmode none
attr recordingmode vector(packetBytes)
attr source packetSent
attr title "packets sent, packetBytes"
vector 151 TwoMasterClocksRingGptpShowcase.tsnClock1.udp packetReceived:vector(packetBytes) ETV
attr interpolationmode none
attr recordingmode vector(packetBytes)
attr source packetReceived
attr title "packets received, packetBytes"
vector 152 TwoMasterClocksRingGptpShowcase.tsnClock1.udp passedUpPk:vector(count) ETV
attr interpolationmode none
attr recordingmode vector(count)
attr source packetSentToUpper
attr title "packets passed up, count"
vector 153 TwoMasterClocksRingGptpShowcase.tsnClock1.udp droppedPkWrongPort:vector(count) ETV
attr interpolationmode none
attr recordingmode vector(count)
attr source packetDropReasonIsNoPortFound(packetDropped)
attr title "packets dropped (wrong port), count"
vector 154 TwoMasterClocksRingGptpShowcase.tsnClock1.udp droppedPkBadChecksum:vector(count) ETV
attr interpolationmode none
attr recordingmode vector(count)
attr source packetDropReasonIsIncorrectlyReceived(packetDropped)
attr title "packets dropped (checksum error), count"
vector 155 TwoMasterClocksRingGptpShowcase.tsnClock1.gptp.domain[0] localTime:vector ETV
attr interpolationmode linear
attr recordingmode vector
vector 156 TwoMasterClocksRingGptpShowcase.tsnClock1.gptp.domain[0] timeDifference:vector ETV
attr interpolationmode linear
attr recordingmode vector
vector 157 TwoMasterClocksRingGptpShowcase.tsnClock1.gptp.domain[0] rateRatio:vector ETV
attr interpolationmode sample-hold
attr recordingmode vector
vector 158 TwoMasterClocksRingGptpShowcase.tsnClock1.gptp.domain[0] peerDelay:vector ETV
attr interpolationmode sample-hold
attr recordingmode vector
vector 159 TwoMasterClocksRingGptpShowcase.tsnClock1.gptp.domain[0] packetDropNotAddressedToUs:vector(packetBytes) ETV
attr interpolationmode none
attr recordingmode vector(packetBytes)
attr source packetDropReasonIsNotAddressedToUs(packetDropped)
attr title "packet drop: not addressed to us, packetBytes"
vector 160 TwoMasterClocksRingGptpShowcase.tsnClock1.gptp.domain[1] localTime:vector ETV
attr interpolationmode linear
attr recordingmode vector
vector 161 TwoMasterClocksRingGptpShowcase.tsnClock1.gptp.domain[1] timeDifference:vector ETV
attr interpolationmode linear
attr recordingmode vector
vector 162 TwoMasterClocksRingGptpShowcase.tsnClock1.gptp.domain[1] rateRatio:vector ETV
attr interpolationmode sample-hold
attr recordingmode vector
vector 163 TwoMasterClocksRingGptpShowcase.tsnClock1.gptp.domain[1] peerDelay:vector ETV
attr interpolationmode sample-hold
attr recordingmode vector
vector 164 TwoMasterClocksRingGptpShowcase.tsnClock1.gptp.domain[1] packetDropNotAddressedToUs:vector(packetBytes) ETV
attr interpolationmode none
attr recordingmode vector(packetBytes)
attr source packetDropReasonIsNotAddressedToUs(packetDropped)
attr title "packet drop: not addressed to us, packetBytes"
vector 165 TwoMasterClocksRingGptpShowcase.tsnClock1.gptp.multiplexer packetLengths:vector ETV
attr interpolationmode none
attr recordingmode vector
attr source "packetLength(merge(packetPushed, packetPulled))"
attr title "packet lengths"
attr unit b
vector 166 TwoMasterClocksRingGptpShowcase.tsnClock1.gptp.multiplexer dataRate:vector ETV
attr interpolationmode linear
attr recordingmode vector
attr source "throughput(merge(packetPushed, packetPulled))"
attr title "data rate"
attr unit bps
vector 167 TwoMasterClocksRingGptpShowcase.tsnClock1.gptp.classifier packetLengths:vector ETV
attr interpolationmode none
attr recordingmode vector
attr source packetLength(packetPushed)
attr title "packet lengths"
attr unit b
vector 168 TwoMasterClocksRingGptpShowcase.tsnClock1.gptp.classifier dataRate:vector ETV
attr interpolationmode linear
attr recordingmode vector
attr source throughput(packetPushed)
attr title "data rate"
attr unit bps
vector 169 TwoMasterClocksRingGptpShowcase.tsnClock2.clock.clock[0].oscillator driftRateChanged:vector ETV
attr interpolationmode sample-hold
attr recordingmode vector
attr title "Oscillator drift rate"
attr unit ppm
vector 170 TwoMasterClocksRingGptpShowcase.tsnClock2.clock.clock[0] timeChanged:vector ETV
attr interpolationmode linear
attr recordingmode vector
attr title "Clock time"
vector 171 TwoMasterClocksRingGptpShowcase.tsnClock2.clock.clock[1].oscillator driftRateChanged:vector ETV
attr interpolationmode sample-hold
attr recordingmode vector
attr title "Oscillator drift rate"
attr unit ppm
vector 172 TwoMasterClocksRingGptpShowcase.tsnClock2.clock.clock[1] timeChanged:vector ETV
attr interpolationmode linear
attr recordingmode vector
attr title "Clock time"
vector 173 TwoMasterClocksRingGptpShowcase.tsnClock2.clock timeChanged:vector ETV
attr interpolationmode linear
attr recordingmode vector
attr source localSignal(timeChanged)
attr title "Clock time"
vector 174 TwoMasterClocksRingGptpShowcase.tsnClock2.ethernet.macHeaderInserter incomingPacketLengths:vector ETV
attr interpolationmode none
attr recordingmode vector
attr source "packetLength(merge(packetPushedIn, packetPulledIn))"
attr title "incoming packet lengths"
attr unit b
vector 175 TwoMasterClocksRingGptpShowcase.tsnClock2.ethernet.macHeaderInserter incomingDataRate:vector ETV
attr interpolationmode linear
attr recordingmode vector
attr source "throughput(merge(packetPushedIn, packetPulledIn))"
attr title "incoming data rate"
attr unit bps
vector 176 TwoMasterClocksRingGptpShowcase.tsnClock2.ethernet.macHeaderInserter outgoingPacketLengths:vector ETV
attr interpolationmode none
attr recordingmode vector
attr source "packetLength(merge(packetPushedOut, packetPulledOut))"
attr title "outgoing packet lengths"
attr unit b
vector 177 TwoMasterClocksRingGptpShowcase.tsnClock2.ethernet.macHeaderInserter outgoingDataRate:vector ETV
attr interpolationmode linear
attr recordingmode vector
attr source "throughput(merge(packetPushedOut, packetPulledOut))"
attr title "outgoing data rate"
attr unit bps
vector 178 TwoMasterClocksRingGptpShowcase.tsnClock2.ethernet.macHeaderInserter flowIncomingPacketLengths:vector ETV
attr interpolationmode none
attr recordingmode vector
attr source "packetLength(demuxFlow(merge(packetPushedIn, packetPulledIn)))"
attr title "flow specific incoming packet lengths"
attr unit b
vector 179 TwoMasterClocksRingGptpShowcase.tsnClock2.ethernet.macHeaderInserter flowIncomingDataRate:vector ETV
attr interpolationmode linear
attr recordingmode vector
attr source "throughput(demuxFlow(merge(packetPushedIn, packetPulledIn)))"
attr title "flow specific incoming data rate"
attr unit bps
vector 180 TwoMasterClocksRingGptpShowcase.tsnClock2.ethernet.macHeaderInserter flowOutgoingPacketLengths:vector ETV
attr interpolationmode none
attr recordingmode vector
attr source "packetLength(demuxFlow(merge(packetPushedOut, packetPulledOut)))"
attr title "flow specific outgoing packet lengths"
attr unit b
vector 181 TwoMasterClocksRingGptpShowcase.tsnClock2.ethernet.macHeaderInserter flowOutgoingDataRate:vector ETV
attr interpolationmode linear
attr recordingmode vector
attr source "throughput(demuxFlow(merge(packetPushedOut, packetPulledOut)))"
attr title "flow specific outgoing data rate"
attr unit bps
vector 182 TwoMasterClocksRingGptpShowcase.tsnClock2.ethernet.paddingInserter incomingPacketLengths:vector ETV
attr interpolationmode none
attr recordingmode vector
attr source "packetLength(merge(packetPushedIn, packetPulledIn))"
attr title "incoming packet lengths"
attr unit b
vector 183 TwoMasterClocksRingGptpShowcase.tsnClock2.ethernet.paddingInserter incomingDataRate:vector ETV
attr interpolationmode linear
attr recordingmode vector
attr source "throughput(merge(packetPushedIn, packetPulledIn))"
attr title "incoming data rate"
attr unit bps
vector 184 TwoMasterClocksRingGptpShowcase.tsnClock2.ethernet.paddingInserter outgoingPacketLengths:vector ETV
attr interpolationmode none
attr recordingmode vector
attr source "packetLength(merge(packetPushedOut, packetPulledOut))"
attr title "outgoing packet lengths"
attr unit b
vector 185 TwoMasterClocksRingGptpShowcase.tsnClock2.ethernet.paddingInserter outgoingDataRate:vector ETV
attr interpolationmode linear
attr recordingmode vector
attr source "throughput(merge(packetPushedOut, packetPulledOut))"
attr title "outgoing data rate"
attr unit bps
vector 186 TwoMasterClocksRingGptpShowcase.tsnClock2.ethernet.paddingInserter flowIncomingPacketLengths:vector ETV
attr interpolationmode none
attr recordingmode vector
attr source "packetLength(demuxFlow(merge(packetPushedIn, packetPulledIn)))"
attr title "flow specific incoming packet lengths"
attr unit b
vector 187 TwoMasterClocksRingGptpShowcase.tsnClock2.ethernet.paddingInserter flowIncomingDataRate:vector ETV
attr interpolationmode linear
attr recordingmode vector
attr source "throughput(demuxFlow(merge(packetPushedIn, packetPulledIn)))"
attr title "flow specific incoming data rate"
attr unit bps
vector 188 TwoMasterClocksRingGptpShowcase.tsnClock2.ethernet.paddingInserter flowOutgoingPacketLengths:vector ETV
attr interpolationmode none
attr recordingmode vector
attr source "packetLength(demuxFlow(merge(packetPushedOut, packetPulledOut)))"
attr title "flow specific outgoing packet lengths"
attr unit b
vector 189 TwoMasterClocksRingGptpShowcase.tsnClock2.ethernet.paddingInserter flowOutgoingDataRate:vector ETV
attr interpolationmode linear
attr recordingmode vector
attr source "throughput(demuxFlow(merge(packetPushedOut, packetPulledOut)))"
attr title "flow specific outgoing data rate"
attr unit bps
vector 190 TwoMasterClocksRingGptpShowcase.tsnClock2.ethernet.fcsInserter incomingPacketLengths:vector ETV
attr interpolationmode none
attr recordingmode vector
attr source "packetLength(merge(packetPushedIn, packetPulledIn))"
attr title "incoming packet lengths"
attr unit b
vector 191 TwoMasterClocksRingGptpShowcase.tsnClock2.ethernet.fcsInserter incomingDataRate:vector ETV
attr interpolationmode linear
attr recordingmode vector
attr source "throughput(merge(packetPushedIn, packetPulledIn))"
attr title "incoming data rate"
attr unit bps
vector 192 TwoMasterClocksRingGptpShowcase.tsnClock2.ethernet.fcsInserter outgoingPacketLengths:vector ETV
attr interpolationmode none
attr recordingmode vector
attr source "packetLength(merge(packetPushedOut, packetPulledOut))"
attr title "outgoing packet lengths"
attr unit b
vector 193 TwoMasterClocksRingGptpShowcase.tsnClock2.ethernet.fcsInserter outgoingDataRate:vector ETV
attr interpolationmode linear
attr recordingmode vector
attr source "throughput(merge(packetPushedOut, packetPulledOut))"
attr title "outgoing data rate"
attr unit bps
vector 194 TwoMasterClocksRingGptpShowcase.tsnClock2.ethernet.fcsInserter flowIncomingPacketLengths:vector ETV
attr interpolationmode none
attr recordingmode vector
attr source "packetLength(demuxFlow(merge(packetPushedIn, packetPulledIn)))"
attr title "flow specific incoming packet lengths"
attr unit b
vector 195 TwoMasterClocksRingGptpShowcase.tsnClock2.ethernet.fcsInserter flowIncomingDataRate:vector ETV
attr interpolationmode linear
attr recordingmode vector
attr source "throughput(demuxFlow(merge(packetPushedIn, packetPulledIn)))"
attr title "flow specific incoming data rate"
attr unit bps
vector 196 TwoMasterClocksRingGptpShowcase.tsnClock2.ethernet.fcsInserter flowOutgoingPacketLengths:vector ETV
attr interpolationmode none
attr recordingmode vector
attr source "packetLength(demuxFlow(merge(packetPushedOut, packetPulledOut)))"
attr title "flow specific outgoing packet lengths"
attr unit b
vector 197 TwoMasterClocksRingGptpShowcase.tsnClock2.ethernet.fcsInserter flowOutgoingDataRate:vector ETV
attr interpolationmode linear
attr recordingmode vector
attr source "throughput(demuxFlow(merge(packetPushedOut, packetPulledOut)))"
attr title "flow specific outgoing data rate"
attr unit bps
vector 198 TwoMasterClocksRingGptpShowcase.tsnClock2.ethernet.macHeaderChecker incomingPacketLengths:vector ETV
attr interpolationmode none
attr recordingmode vector
attr source "packetLength(merge(packetPushedIn, packetPulledIn))"
attr title "incoming packet lengths"
attr unit b
vector 199 TwoMasterClocksRingGptpShowcase.tsnClock2.ethernet.macHeaderChecker incomingDataRate:vector ETV
attr interpolationmode linear
attr recordingmode vector
attr source "throughput(merge(packetPushedIn, packetPulledIn))"
attr title "incoming data rate"
attr unit bps
vector 200 TwoMasterClocksRingGptpShowcase.tsnClock2.ethernet.macHeaderChecker outgoingPacketLengths:vector ETV
attr interpolationmode none
attr recordingmode vector
attr source "packetLength(merge(packetPushedOut, packetPulledOut))"
attr title "outgoing packet lengths"
attr unit b
vector 201 TwoMasterClocksRingGptpShowcase.tsnClock2.ethernet.macHeaderChecker outgoingDataRate:vector ETV
attr interpolationmode linear
attr recordingmode vector
attr source "throughput(merge(packetPushedOut, packetPulledOut))"
attr title "outgoing data rate"
attr unit bps
vector 202 TwoMasterClocksRingGptpShowcase.tsnClock2.ethernet.macHeaderChecker droppedPacketLengths:vector ETV
attr interpolationmode none
attr recordingmode vector
attr source packetLength(packetDropped)
attr title "dropped packet lengths"
attr unit b
vector 203 TwoMasterClocksRingGptpShowcase.tsnClock2.ethernet.macHeaderChecker droppedDataRate:vector ETV
attr interpolationmode linear
attr recordingmode vector
attr source throughput(packetDropped)
attr title "dropped data rate"
attr unit bps
vector 204 TwoMasterClocksRingGptpShowcase.tsnClock2.ethernet.macHeaderChecker flowIncomingPacketLengths:vector ETV
attr interpolationmode none
attr recordingmode vector
attr source "packetLength(demuxFlow(merge(packetPushedIn, packetPulledIn)))"
attr title "flow specific incoming packet lengths"
attr unit b
vector 205 TwoMasterClocksRingGptpShowcase.tsnClock2.ethernet.macHeaderChecker flowIncomingDataRate:vector ETV
attr interpolationmode linear
attr recordingmode vector
attr source "throughput(demuxFlow(merge(packetPushedIn, packetPulledIn)))"
attr title "flow specific incoming data rate"
attr unit bps
vector 206 TwoMasterClocksRingGptpShowcase.tsnClock2.ethernet.macHeaderChecker flowOutgoingPacketLengths:vector ETV
attr interpolationmode none
attr recordingmode vector
attr source "packetLength(demuxFlow(merge(packetPushedOut, packetPulledOut)))"
attr title "flow specific outgoing packet lengths"
attr unit b
vector 207 TwoMasterClocksRingGptpShowcase.tsnClock2.ethernet.macHeaderChecker flowOutgoingDataRate:vector ETV
attr interpolationmode linear
attr recordingmode vector
attr source "throughput(demuxFlow(merge(packetPushedOut, packetPulledOut)))"
attr title "flow specific outgoing data rate"
attr unit bps
vector 208 TwoMasterClocksRingGptpShowcase.tsnClock2.ethernet.macHeaderChecker flowDroppedPacketLengths:vector ETV
attr interpolationmode none
attr recordingmode vector
attr source packetLength(demuxFlow(packetDropped))
attr title "flow specific dropped packet lengths"
attr unit b
vector 209 TwoMasterClocksRingGptpShowcase.tsnClock2.ethernet.macHeaderChecker flowDroppedDataRate:vector ETV
attr interpolationmode linear
attr recordingmode vector
attr source throughput(demuxFlow(packetDropped))
attr title "flow specific dropped data rate"
attr unit bps
vector 210 TwoMasterClocksRingGptpShowcase.tsnClock2.ethernet.fcsChecker incomingPacketLengths:vector ETV
attr interpolationmode none
attr recordingmode vector
attr source "packetLength(merge(packetPushedIn, packetPulledIn))"
attr title "incoming packet lengths"
attr unit b
vector 211 TwoMasterClocksRingGptpShowcase.tsnClock2.ethernet.fcsChecker incomingDataRate:vector ETV
attr interpolationmode linear
attr recordingmode vector
attr source "throughput(merge(packetPushedIn, packetPulledIn))"
attr title "incoming data rate"
attr unit bps
vector 212 TwoMasterClocksRingGptpShowcase.tsnClock2.ethernet.fcsChecker outgoingPacketLengths:vector ETV
attr interpolationmode none
attr recordingmode vector
attr source "packetLength(merge(packetPushedOut, packetPulledOut))"
attr title "outgoing packet lengths"
attr unit b
vector 213 TwoMasterClocksRingGptpShowcase.tsnClock2.ethernet.fcsChecker outgoingDataRate:vector ETV
attr interpolationmode linear
attr recordingmode vector
attr source "throughput(merge(packetPushedOut, packetPulledOut))"
attr title "outgoing data rate"
attr unit bps
vector 214 TwoMasterClocksRingGptpShowcase.tsnClock2.ethernet.fcsChecker droppedPacketLengths:vector ETV
attr interpolationmode none
attr recordingmode vector
attr source packetLength(packetDropped)
attr title "dropped packet lengths"
attr unit b
vector 215 TwoMasterClocksRingGptpShowcase.tsnClock2.ethernet.fcsChecker droppedDataRate:vector ETV
attr interpolationmode linear
attr recordingmode vector
attr source throughput(packetDropped)
attr title "dropped data rate"
attr unit bps
vector 216 TwoMasterClocksRingGptpShowcase.tsnClock2.ethernet.fcsChecker flowIncomingPacketLengths:vector ETV
attr interpolationmode none
attr recordingmode vector
attr source "packetLength(demuxFlow(merge(packetPushedIn, packetPulledIn)))"
attr title "flow specific incoming packet lengths"
attr unit b
vector 217 TwoMasterClocksRingGptpShowcase.tsnClock2.ethernet.fcsChecker flowIncomingDataRate:vector ETV
attr interpolationmode linear
attr recordingmode vector
attr source "throughput(demuxFlow(merge(packetPushedIn, packetPulledIn)))"
attr title "flow specific incoming data rate"
attr unit bps
vector 218 TwoMasterClocksRingGptpShowcase.tsnClock2.ethernet.fcsChecker flowOutgoingPacketLengths:vector ETV
attr interpolationmode none
attr recordingmode vector
attr source "packetLength(demuxFlow(merge(packetPushedOut, packetPulledOut)))"
attr title "flow specific outgoing packet lengths"
attr unit b
vector 219 TwoMasterClocksRingGptpShowcase.tsnClock2.ethernet.fcsChecker flowOutgoingDataRate:vector ETV
attr interpolationmode linear
attr recordingmode vector
attr source "throughput(demuxFlow(merge(packetPushedOut, packetPulledOut)))"
attr title "flow specific outgoing data rate"
attr unit bps
vector 220 TwoMasterClocksRingGptpShowcase.tsnClock2.ethernet.fcsChecker flowDroppedPacketLengths:vector ETV
attr interpolationmode none
attr recordingmode vector
attr source packetLength(demuxFlow(packetDropped))
attr title "flow specific dropped packet lengths"
attr unit b
vector 221 TwoMasterClocksRingGptpShowcase.tsnClock2.ethernet.fcsChecker flowDroppedDataRate:vector ETV
attr interpolationmode linear
attr recordingmode vector
attr source throughput(demuxFlow(packetDropped))
attr title "flow specific dropped data rate"
attr unit bps
vector 222 TwoMasterClocksRingGptpShowcase.tsnClock2.lo[0].lo rcvdPkFromHl:vector(packetBytes) ETV
attr interpolationmode none
attr recordingmode vector(packetBytes)
attr source packetReceivedFromUpper
attr title "packets received from higher layer, packetBytes"
vector 223 TwoMasterClocksRingGptpShowcase.tsnClock2.lo[0].lo passedUpPk:vector(packetBytes) ETV
attr interpolationmode none
attr recordingmode vector(packetBytes)
attr source packetSentToUpper
attr title "packets passed to higher layer, packetBytes"
vector 224 TwoMasterClocksRingGptpShowcase.tsnClock2.lo[0] packetDropInterfaceDown:vector(packetBytes) ETV
attr interpolationmode none
attr recordingmode vector(packetBytes)
attr source packetDropReasonIsInterfaceDown(packetDropped)
attr title "packet drops: interface down, packetBytes"
vector 225 TwoMasterClocksRingGptpShowcase.tsnClock2.lo[0] packetDropNoCarrier:vector(packetBytes) ETV
attr interpolationmode none
attr recordingmode vector(packetBytes)
attr source packetDropReasonIsNoCarrier(packetDropped)
attr title "packet drops: no carrier, packetBytes"
vector 226 TwoMasterClocksRingGptpShowcase.tsnClock2.eth[0].macLayer.queue queueLength:vector ETV
attr autoWarmupFilter false
attr interpolationmode sample-hold
attr recordingmode vector
attr source "warmup(atomic(constant0(packetPushEnded) + count(packetPushStarted) - count(packetPulled) - count(packetRemoved) - count(packetDropped)))"
attr title "queue length"
attr unit pk
vector 227 TwoMasterClocksRingGptpShowcase.tsnClock2.eth[0].macLayer.queue queueBitLength:vector ETV
attr autoWarmupFilter false
attr interpolationmode sample-hold
attr recordingmode vector
attr source "warmup(atomic(constant0(packetPushEnded) + sum(packetLength(packetPushStarted)) - sum(packetLength(packetPulled)) - sum(packetLength(packetRemoved)) - sum(packetLength(packetDropped))))"
attr title "queue bit length"
attr unit b
vector 228 TwoMasterClocksRingGptpShowcase.tsnClock2.eth[0].macLayer.queue queueingTime:vector ETV
attr interpolationmode none
attr recordingmode vector
attr source queueingTime(packetPulled)
attr title "queueing times"
attr unit s
vector 229 TwoMasterClocksRingGptpShowcase.tsnClock2.eth[0].macLayer.queue incomingPacketLengths:vector ETV
attr interpolationmode none
attr recordingmode vector
attr source packetLength(packetPushStarted)
attr title "incoming packet lengths"
attr unit b
vector 230 TwoMasterClocksRingGptpShowcase.tsnClock2.eth[0].macLayer.queue incomingDataRate:vector ETV
attr interpolationmode linear
attr recordingmode vector
attr source throughput(packetPushStarted)
attr title "incoming datarate"
attr unit bps
vector 231 TwoMasterClocksRingGptpShowcase.tsnClock2.eth[0].macLayer.queue outgoingPacketLengths:vector ETV
attr interpolationmode none
attr recordingmode vector
attr source packetLength(packetPulled)
attr title "outgoing packet lengths"
attr unit b
vector 232 TwoMasterClocksRingGptpShowcase.tsnClock2.eth[0].macLayer.queue outgoingDataRate:vector ETV
attr interpolationmode linear
attr recordingmode vector
attr source throughput(packetPulled)
attr title "outgoing datarate"
attr unit bps
vector 233 TwoMasterClocksRingGptpShowcase.tsnClock2.eth[0].macLayer.queue droppedPacketLengthsQueueOverflow:vector ETV
attr interpolationmode none
attr recordingmode vector
attr source packetLength(packetDropReasonIsQueueOverflow(packetDropped))
attr title "dropped packet lengths: queue overflow"
attr unit b
vector 234 TwoMasterClocksRingGptpShowcase.tsnClock2.eth[0].macLayer.queue flowQueueingTime:vector ETV
attr interpolationmode none
attr recordingmode vector
attr source queueingTime(demuxFlow(packetPulled))
attr title "flow queueing times"
attr unit s
vector 235 TwoMasterClocksRingGptpShowcase.tsnClock2.eth[0].macLayer.queue flowIncomingDataRate:vector ETV
attr interpolationmode linear
attr recordingmode vector
attr source throughput(flowPacketLength(demuxFlow(packetPushStarted)))
attr title "flow specific incoming data rate"
attr unit bps
vector 236 TwoMasterClocksRingGptpShowcase.tsnClock2.eth[0].macLayer.queue flowOutgoingDataRate:vector ETV
attr interpolationmode linear
attr recordingmode vector
attr source throughput(flowPacketLength(demuxFlow(packetPulled)))
attr title "flow specific outgoing data rate"
attr unit bps
vector 237 TwoMasterClocksRingGptpShowcase.tsnClock2.eth[0].macLayer.server incomingPacketLengths:vector ETV
attr interpolationmode none
attr recordingmode vector
attr source packetLength(packetPulled)
attr title "incoming packet lengths"
attr unit b
vector 238 TwoMasterClocksRingGptpShowcase.tsnClock2.eth[0].macLayer.server incomingDataRate:vector ETV
attr interpolationmode linear
attr recordingmode vector
attr source throughput(packetPulled)
attr title "incoming datarate"
attr unit bps
vector 239 TwoMasterClocksRingGptpShowcase.tsnClock2.eth[0].macLayer.server outgoingPacketLengths:vector ETV
attr interpolationmode none
attr recordingmode vector
attr source packetLength(packetPushed)
attr title "outgoing packet lengths"
attr unit b
vector 240 TwoMasterClocksRingGptpShowcase.tsnClock2.eth[0].macLayer.server outgoingDataRate:vector ETV
attr interpolationmode linear
attr recordingmode vector
attr source throughput(packetPushed)
attr title "outgoing datarate"
attr unit bps
vector 241 TwoMasterClocksRingGptpShowcase.tsnClock2.eth[0].macLayer.outboundEmitter incomingPacketLengths:vector ETV
attr interpolationmode none
attr recordingmode vector
attr source "packetLength(merge(packetPushedIn, packetPulledIn))"
attr title "incoming packet lengths"
attr unit b
vector 242 TwoMasterClocksRingGptpShowcase.tsnClock2.eth[0].macLayer.outboundEmitter incomingDataRate:vector ETV
attr interpolationmode linear
attr recordingmode vector
attr source "throughput(merge(packetPushedIn, packetPulledIn))"
attr title "incoming data rate"
attr unit bps
vector 243 TwoMasterClocksRingGptpShowcase.tsnClock2.eth[0].macLayer.outboundEmitter outgoingPacketLengths:vector ETV
attr interpolationmode none
attr recordingmode vector
attr source "packetLength(merge(packetPushedOut, packetPulledOut))"
attr title "outgoing packet lengths"
attr unit b
vector 244 TwoMasterClocksRingGptpShowcase.tsnClock2.eth[0].macLayer.outboundEmitter outgoingDataRate:vector ETV
attr interpolationmode linear
attr recordingmode vector
attr source "throughput(merge(packetPushedOut, packetPulledOut))"
attr title "outgoing data rate"
attr unit bps
vector 245 TwoMasterClocksRingGptpShowcase.tsnClock2.eth[0].macLayer.outboundEmitter flowIncomingPacketLengths:vector ETV
attr interpolationmode none
attr recordingmode vector
attr source "packetLength(demuxFlow(merge(packetPushedIn, packetPulledIn)))"
attr title "flow specific incoming packet lengths"
attr unit b
vector 246 TwoMasterClocksRingGptpShowcase.tsnClock2.eth[0].macLayer.outboundEmitter flowIncomingDataRate:vector ETV
attr interpolationmode linear
attr recordingmode vector
attr source "throughput(demuxFlow(merge(packetPushedIn, packetPulledIn)))"
attr title "flow specific incoming data rate"
attr unit bps
vector 247 TwoMasterClocksRingGptpShowcase.tsnClock2.eth[0].macLayer.outboundEmitter flowOutgoingPacketLengths:vector ETV
attr interpolationmode none
attr recordingmode vector
attr source "packetLength(demuxFlow(merge(packetPushedOut, packetPulledOut)))"
attr title "flow specific outgoing packet lengths"
attr unit b
vector 248 TwoMasterClocksRingGptpShowcase.tsnClock2.eth[0].macLayer.outboundEmitter flowOutgoingDataRate:vector ETV
attr interpolationmode linear
attr recordingmode vector
attr source "throughput(demuxFlow(merge(packetPushedOut, packetPulledOut)))"
attr title "flow specific outgoing data rate"
attr unit bps
vector 249 TwoMasterClocksRingGptpShowcase.tsnClock2.eth[0].macLayer.fcsChecker incomingPacketLengths:vector ETV
attr interpolationmode none
[...]
3516	4200	0.687535060571	5.76e-06
3516	4210	0.687544180571	8.16e-06
3516	4385	0.71879860505	5.76e-06
3516	4395	0.71880772505	8.16e-06
3516	4571	0.750078467458	5.76e-06
3516	4581	0.750087587458	8.16e-06
3516	4750	0.781344856514	5.76e-06
3516	4755	0.781353976514	8.16e-06
3516	4802	0.812535143816	5.76e-06
3516	4812	0.812544263816	8.16e-06
3516	4987	0.843798416892	5.76e-06
3516	4997	0.843807536892	8.16e-06
3516	5173	0.875078246322	5.76e-06
3516	5183	0.875087366322	8.16e-06
3516	5352	0.906344882308	5.76e-06
3516	5357	0.906354002308	8.16e-06
3516	5404	0.937535161371	5.76e-06
3516	5414	0.937544281371	8.16e-06
3516	5589	0.968798597543	5.76e-06
3516	5599	0.968807717543	8.16e-06
3516	5737	1.000025175923	6.4e-06
3516	5785	1.000032535923	6.4e-06
3516	5906	1.000046880628	6.4e-06
3516	5960	1.000054240628	6.4e-06
3516	6013	1.000061600628	6.4e-06
3516	6047	1.000068960628	6.4e-06
3516	6137	1.000085837481	5.76e-06
3516	6186	1.000094957481	8.16e-06
3516	6393	1.000126178945	6.4e-06
3516	6450	1.000133538945	6.4e-06
3516	6809	1.093798596439	5.76e-06
3516	6819	1.093807716439	8.16e-06
3516	6995	1.125078462897	5.76e-06
3516	7005	1.125087582897	8.16e-06
3516	7105	1.218798622268	5.76e-06
3516	7115	1.218807742268	8.16e-06
3516	7291	1.250078488724	5.76e-06
3516	7301	1.250087608724	8.16e-06
3516	7401	1.343798648096	5.76e-06
3516	7411	1.343807768096	8.16e-06
3516	7587	1.375078514552	5.76e-06
3516	7597	1.375087634552	8.16e-06
3516	7697	1.468798673923	5.76e-06
3516	7707	1.468807793923	8.16e-06
3516	7883	1.500078540381	5.76e-06
3516	7893	1.500087660381	8.16e-06
3516	7993	1.593798699751	5.76e-06
3516	8003	1.593807819751	8.16e-06
3516	8179	1.625078566208	5.76e-06
3516	8189	1.625087686208	8.16e-06
3516	8289	1.718798725578	5.76e-06
3516	8299	1.718807845578	8.16e-06
3516	8475	1.750078592036	5.76e-06
3516	8485	1.750087712036	8.16e-06
3516	8585	1.843798751407	5.76e-06
3516	8595	1.843807871407	8.16e-06
3516	8771	1.875078617863	5.76e-06
3516	8781	1.875087737863	8.16e-06
3516	8881	1.968798777235	5.76e-06
3516	8891	1.968807897235	8.16e-06
3516	9067	2.000078643691	5.76e-06
3516	9122	2.000087763691	8.16e-06
3516	9236	2.000100082098	6.4e-06
3516	9356	2.000107442098	6.4e-06
3516	9470	2.000114802098	6.4e-06
3516	9605	2.000122162098	6.4e-06
3516	9725	2.000129522098	6.4e-06
3516	9833	2.000136882098	6.4e-06
3516	9917	2.000144242098	6.4e-06
3516	9956	2.000151602098	6.4e-06
3516	10096	2.093798803062	5.76e-06
3516	10106	2.093807923062	8.16e-06
3516	10282	2.12507866952	5.76e-06
3516	10292	2.12508778952	8.16e-06
3516	10392	2.21879882889	5.76e-06
3516	10402	2.21880794889	8.16e-06
3516	10578	2.250078695347	5.76e-06
3516	10588	2.250087815347	8.16e-06
3516	10688	2.343798854718	5.76e-06
3516	10698	2.343807974718	8.16e-06
3516	10874	2.375078721175	5.76e-06
3516	10884	2.375087841175	8.16e-06
3516	10984	2.468798880546	5.76e-06
3516	10994	2.468808000546	8.16e-06
3516	11171	2.500078747003	5.76e-06
3516	11181	2.500087867003	8.16e-06
3516	11281	2.593798906374	5.76e-06
3516	11291	2.593808026374	8.16e-06
3516	11467	2.62507877283	5.76e-06
3516	11477	2.62508789283	8.16e-06
3516	11577	2.718798932201	5.76e-06
3516	11587	2.718808052201	8.16e-06
3516	11763	2.750078798658	5.76e-06
3516	11773	2.750087918658	8.16e-06
3516	11873	2.843798958029	5.76e-06
3516	11883	2.843808078029	8.16e-06
3516	12059	2.875078824486	5.76e-06
3516	12069	2.875087944486	8.16e-06
3516	12169	2.968798983857	5.76e-06
3516	12179	2.968808103857	8.16e-06
3516	12393	3.000100483478	6.4e-06
3516	12505	3.000107843478	6.4e-06
3516	12620	3.000115203478	6.4e-06
3516	12740	3.000122563478	6.4e-06
3516	12846	3.000129923478	6.4e-06
3516	12944	3.000137283478	6.4e-06
3516	13018	3.000144643478	6.4e-06
3516	13059	3.000152003478	6.4e-06
3516	13374	4.000100690149	6.4e-06
3516	13484	4.000108050149	6.4e-06
3516	13599	4.000115410149	6.4e-06
3516	13720	4.000122770149	6.4e-06
3516	13827	4.000130130149	6.4e-06
3516	13924	4.000137490149	6.4e-06
3516	13997	4.000144850149	6.4e-06
3516	14038	4.000152210149	6.4e-06
3528	0	0	0
3529	0	0	0
3530	0	0	0
3531	1144	0.031354495022	0.031354513498
3531	1746	0.156354291345	0.156354512737
3531	2348	0.281354036642	0.281354510887
3531	2950	0.406354009465	0.40635451083
3531	3552	0.53135401904	0.531354510718
3531	4154	0.656353896771	0.656354510734
3531	4756	0.781353976514	0.781354510732
3531	5358	0.906354002308	0.906354510661
3532	1144	0.031354495022	2.320308e-06
3532	1144	0.031354495022	1.8476e-08
3532	1746	0.156354291345	9.268765e-06
3532	1746	0.156354291345	2.21392e-07
3532	2348	0.281354036642	4.24308e-07
3532	2348	0.281354036642	4.74245e-07
3532	2950	0.406354009465	7.27757e-07
3532	2950	0.406354009465	5.01365e-07
3532	3552	0.53135401904	5.28484e-07
3532	3552	0.53135401904	4.91678e-07
3532	4154	0.656353896771	4.82005e-07
3532	4154	0.656353896771	6.13963e-07
3532	4756	0.781353976514	7.36253e-07
3532	4756	0.781353976514	5.34218e-07
3532	5358	0.906354002308	4.54462e-07
3532	5358	0.906354002308	5.08353e-07
3533	1144	0.031354495022	1
3533	1746	0.156354291345	0.9999276262539
3533	2348	0.281354036642	1.0000004047762
3533	2950	0.406354009465	0.99999818884328
3533	3552	0.53135401904	0.99999970568009
3533	4154	0.656353896771	1.0000010556891
3533	4756	0.781353976514	0.99999838364261
3533	5358	0.906354002308	1.0000004312402
3534	955	0.00016505032	5.0747e-08
3534	6048	1.000068960628	5.0005e-08
3534	9918	2.000144242098	5.0005e-08
3534	13019	3.000144643478	5.0006e-08
3534	13998	4.000144850149	5.0005e-08
3536	1202	0.062544738933	0.062544792477
3536	1804	0.18754449371	0.187544792133
3536	2406	0.31254426565	0.312544790911
3536	3008	0.437544331119	0.437544790868
3536	3610	0.562544262999	0.562544790822
3536	4212	0.687544180571	0.687544790849
3536	4814	0.812544263816	0.812544790837
3536	5416	0.937544281371	0.937544790807
3537	1202	0.062544738933	4.629402e-06
3537	1202	0.062544738933	5.3544e-08
3537	1804	0.18754449371	9.305707e-06
3537	1804	0.18754449371	2.98423e-07
3537	2406	0.31254426565	5.43302e-07
3537	2406	0.31254426565	5.25261e-07
3537	3008	0.437544331119	7.52757e-07
3537	3008	0.437544331119	4.59749e-07
3537	3610	0.562544262999	3.94238e-07
3537	3610	0.562544262999	5.27823e-07
3537	4212	0.687544180571	5.95919e-07
3537	4212	0.687544180571	6.10278e-07
3537	4814	0.812544263816	6.92722e-07
3537	4814	0.812544263816	5.27021e-07
3537	5416	0.937544281371	4.43764e-07
3537	5416	0.937544281371	5.09436e-07
3538	1202	0.062544738933	1
3538	1804	0.18754449371	0.99992794691982
3538	2406	0.31254426565	0.99999986092802
3538	3008	0.437544331119	0.99999765594949
3538	3610	0.562544262999	1.0000010688491
3538	4212	0.687544180571	1.0000001148
3538	4814	0.812544263816	0.99999867438576
3538	5416	0.937544281371	1.0000005254723
3539	907	0.00015033032	5.0853e-08
3539	5961	1.000054240628	5.0005e-08
3539	9726	2.000129522098	5.0006e-08
3539	12847	3.000129923478	5.0006e-08
3539	13828	4.000130130149	5.0006e-08
3541	1387	0.093808804756	0.093809435642
3541	1989	0.218807584431	0.218807908917
3541	2591	0.34380788978	0.343808490356
3541	3193	0.468807611231	0.468808126103
3541	3795	0.593807697055	0.593808183815
3541	4397	0.71880772505	0.718808400016
3541	4999	0.843807536892	0.84380803122
3541	5601	0.968807717543	0.968808212879
3541	6821	1.093807716439	1.093808185405
3541	7117	1.218807742268	1.218808185398
3541	7413	1.343807768096	1.343808185398
3541	7709	1.468807793923	1.468808185397
3541	8005	1.593807819751	1.593808185396
3541	8301	1.718807845578	1.718808185397
3541	8597	1.843807871407	1.843808185398
3541	8893	1.968807897235	1.968808185397
3541	10108	2.093807923062	2.093808185351
3541	10404	2.21880794889	2.21880818535
3541	10700	2.343807974718	2.343808185353
3541	10996	2.468808000546	2.468808185351
3541	11293	2.593808026374	2.593808185353
3541	11589	2.718808052201	2.718808185351
3541	11885	2.843808078029	2.843808185352
3541	12181	2.968808103857	2.96880818535
3542	1387	0.093808804756	8.979722e-06
3542	1387	0.093808804756	6.30886e-07
3542	1989	0.218807584431	1.2596228e-05
3542	1989	0.218807584431	3.24486e-07
3542	2591	0.34380788978	1.8082e-08
3542	2591	0.34380788978	6.00576e-07
3542	3193	0.468807611231	8.77561e-07
3542	3193	0.468807611231	5.14872e-07
3542	3795	0.593807697055	4.29125e-07
3542	3795	0.593807697055	4.8676e-07
3542	4397	0.71880772505	4.58673e-07
3542	4397	0.71880772505	6.74966e-07
3542	4999	0.843807536892	8.63169e-07
3542	4999	0.843807536892	4.94328e-07
3542	5601	0.968807717543	3.13672e-07
3542	5601	0.968807717543	4.95336e-07
3542	6821	1.093807716439	4.96372e-07
3542	6821	1.093807716439	4.68966e-07
3542	7117	1.218807742268	4.43168e-07
3542	7117	1.218807742268	4.4313e-07
3542	7413	1.343807768096	4.17295e-07
3542	7413	1.343807768096	4.17302e-07
3542	7709	1.468807793923	3.91474e-07
3542	7709	1.468807793923	3.91474e-07
3542	8005	1.593807819751	3.65645e-07
3542	8005	1.593807819751	3.65645e-07
3542	8301	1.718807845578	3.39817e-07
3542	8301	1.718807845578	3.39819e-07
3542	8597	1.843807871407	3.13993e-07
3542	8597	1.843807871407	3.13991e-07
3542	8893	1.968807897235	2.88162e-07
3542	8893	1.968807897235	2.88162e-07
3542	10108	2.093807923062	2.62332e-07
3542	10108	2.093807923062	2.62289e-07
3542	10404	2.21880794889	2.36429e-07
3542	10404	2.21880794889	2.3646e-07
3542	10700	2.343807974718	2.1063e-07
3542	10700	2.343807974718	2.10635e-07
3542	10996	2.468808000546	1.8481e-07
3542	10996	2.468808000546	1.84805e-07
3542	11293	2.593808026374	1.58975e-07
3542	11293	2.593808026374	1.58979e-07
3542	11589	2.718808052201	1.33153e-07
3542	11589	2.718808052201	1.3315e-07
3542	11885	2.843808078029	1.07321e-07
3542	11885	2.843808078029	1.07323e-07
3542	12181	2.968808103857	8.1497e-08
3542	12181	2.968808103857	8.1493e-08
3543	1387	0.093808804756	1
3543	1989	0.218807584431	0.99990183450232
3543	2591	0.34380788978	1.00000466712
3543	3193	0.468807611231	0.99999709814396
3543	3795	0.593807697055	1.000000461288
3543	4397	0.71880772505	1.000001730312
3543	4999	0.843807536892	0.999997049144
3543	5601	0.968807717543	1.000001453528
3543	6821	1.093807716439	0.999999785328
3543	7117	1.218807742268	0.999999999704
3543	7413	1.343807768096	1.000000000056
3543	7709	1.468807793923	1
3543	8005	1.593807819751	1.000000000008
3543	8301	1.718807845578	1.000000000016
3543	8597	1.843807871407	0.999999999976
3543	8893	1.968807897235	1
3543	10108	2.093807923062	0.999999999752
3543	10404	2.21880794889	1.00000000024
3543	10700	2.343807974718	1.00000000004
3543	10996	2.468808000546	0.99999999996
3543	11293	2.593808026374	1.000000000032
3543	11589	2.718808052201	0.999999999976
3543	11885	2.843808078029	1.000000000016
3543	12181	2.968808103857	0.999999999968
3544	585	0.00012825032	5.0596e-08
3544	5786	1.000032535923	5.0011e-08
3544	9357	2.000107442098	5e-08
3544	12506	3.000107843478	5e-08
3544	13485	4.000108050149	5e-08
3546	1573	0.125088359675	0.125089291202
3546	2175	0.250087139349	0.250087511017
3546	2777	0.37508769908	0.375088361958
3546	3379	0.500087407901	0.500087928678
3546	3981	0.625087550272	0.625088033677
3546	4583	0.750087587458	0.75008829211
3546	5185	0.875087366322	0.875087839822
3546	6188	1.000094957481	1.000095445057
3546	7007	1.125087582897	1.125087922319
3546	7303	1.250087608724	1.25008792302
3546	7599	1.375087634552	1.3750879225
3546	7895	1.500087660381	1.500087922503
3546	8191	1.625087686208	1.625087922501
3546	8487	1.750087712036	1.750087922501
3546	8783	1.875087737863	1.8750879225
3546	9124	2.000087763691	2.000087922499
3546	10294	2.12508778952	2.12508804535
3546	10590	2.250087815347	2.250088045365
3546	10886	2.375087841175	2.375088045346
3546	11183	2.500087867003	2.500088045347
3546	11479	2.62508789283	2.625088045345
3546	11775	2.750087918658	2.750088045344
3546	12071	2.875087944486	2.875088045346
3547	1573	0.125088359675	-6.60265e-07
3547	1573	0.125088359675	9.31527e-07
3547	2175	0.250087139349	2.71735e-07
3547	2175	0.250087139349	3.71668e-07
3547	2777	0.37508769908	-1.882e-07
3547	2777	0.37508769908	6.62878e-07
3547	3379	0.500087407901	9.54079e-07
3547	3379	0.500087407901	5.20777e-07
3547	3981	0.625087550272	3.78614e-07
3547	3981	0.625087550272	4.83405e-07
3547	4583	0.750087587458	4.46065e-07
3547	4583	0.750087587458	7.04652e-07
3547	5185	0.875087366322	9.2589e-07
3547	5185	0.875087366322	4.735e-07
3547	6188	1.000094957481	2.42315e-07
3547	6188	1.000094957481	4.87576e-07
3547	7007	1.125087582897	5.01684e-07
3547	7007	1.125087582897	3.39422e-07
3547	7303	1.250087608724	1.91463e-07
3547	7303	1.250087608724	3.14296e-07
3547	7599	1.375087634552	2.89182e-07
3547	7599	1.375087634552	2.87948e-07
3547	7895	1.500087660381	2.61592e-07
3547	7895	1.500087660381	2.62122e-07
3547	8191	1.625087686208	2.36296e-07
3547	8191	1.625087686208	2.36293e-07
3547	8487	1.750087712036	2.10464e-07
3547	8487	1.750087712036	2.10465e-07
3547	8783	1.875087737863	1.84636e-07
3547	8783	1.875087737863	1.84637e-07
3547	9124	2.000087763691	1.58811e-07
3547	9124	2.000087763691	1.58808e-07
3547	10294	2.12508778952	1.32978e-07
3547	10294	2.12508778952	2.5583e-07
3547	10590	2.250087815347	3.52865e-07
3547	10590	2.250087815347	2.30018e-07
3547	10886	2.375087841175	2.04197e-07
3547	10886	2.375087841175	2.04171e-07
3547	11183	2.500087867003	1.78333e-07
3547	11183	2.500087867003	1.78344e-07
3547	11479	2.62508789283	1.52517e-07
3547	11479	2.62508789283	1.52515e-07
3547	11775	2.750087918658	1.26685e-07
3547	11775	2.750087918658	1.26686e-07
3547	12071	2.875087944486	1.00859e-07
3547	12071	2.875087944486	1.0086e-07
3548	1573	0.125088359675	1
3548	2175	0.250087139349	1.000000799476
3548	2777	0.37508769908	1.000006808568
3548	3379	0.500087407901	0.999996533088
3548	3981	0.625087550272	1.000000838584
3548	4583	0.750087587458	1.000002068632
3548	5185	0.875087366322	0.999996380728
3548	6188	1.000094957481	1.0000019622365
3548	7007	1.125087582897	0.99999870345965
3548	7303	1.250087608724	1.000000982761
3548	7599	1.375087634552	0.999999990064
3548	7895	1.500087660381	1.00000000424
3548	8191	1.625087686208	0.999999999976
3548	8487	1.750087712036	1.000000000008
3548	8783	1.875087737863	1.000000000016
3548	9124	2.000087763691	0.999999999968
3548	10294	2.12508778952	1.00000098292
3548	10590	2.250087815347	0.99999901715297
3548	10886	2.375087841175	0.999999999864
3548	11183	2.500087867003	1.000000000088
3548	11479	2.62508789283	0.999999999984
3548	11775	2.750087918658	1.000000000016
3548	12071	2.875087944486	1
3549	975	0.00017241032	5.0236e-08
3549	6451	1.000133538945	5.0013e-08
3549	9957	2.000151602098	5e-08
3549	13060	3.000152003478	5e-08
3549	14039	4.000152210149	5e-08
3553	405	0.00012089032	432
3553	584	0.00012825032	432
3553	729	0.00013561032	432
3553	836	0.00014297032	432
3553	906	0.00015033032	432
3553	934	0.00015769032	432
3553	954	0.00016505032	432
3553	974	0.00017241032	432
3553	1138	0.031345375022	368
3553	1143	0.031354495022	608
3553	1190	0.062535618933	368
3553	1200	0.062544738933	608
3553	1375	0.093799684756	368
3553	1385	0.093808804756	608
3553	1561	0.125079239675	368
3553	1571	0.125088359675	608
3553	1740	0.156345171345	368
3553	1745	0.156354291345	608
3553	1792	0.18753537371	368
3553	1802	0.18754449371	608
3553	1977	0.218798464431	368
3553	1987	0.218807584431	608
3553	2163	0.250078019349	368
3553	2173	0.250087139349	608
3553	2342	0.281344916642	368
3553	2347	0.281354036642	608
3553	2394	0.31253514565	368
3553	2404	0.31254426565	608
3553	2579	0.34379876978	368
3553	2589	0.34380788978	608
3553	2765	0.37507857908	368
3553	2775	0.37508769908	608
3553	2944	0.406344889465	368
3553	2949	0.406354009465	608
3553	2996	0.437535211119	368
3553	3006	0.437544331119	608
3553	3181	0.468798491231	368
3553	3191	0.468807611231	608
3553	3367	0.500078287901	368
3553	3377	0.500087407901	608
3553	3546	0.53134489904	368
3553	3551	0.53135401904	608
3553	3598	0.562535142999	368
3553	3608	0.562544262999	608
3553	3783	0.593798577055	368
3553	3793	0.593807697055	608
3553	3969	0.625078430272	368
3553	3979	0.625087550272	608
3553	4148	0.656344776771	368
3553	4153	0.656353896771	608
3553	4200	0.687535060571	368
3553	4210	0.687544180571	608
3553	4385	0.71879860505	368
3553	4395	0.71880772505	608
3553	4571	0.750078467458	368
3553	4581	0.750087587458	608
3553	4750	0.781344856514	368
3553	4755	0.781353976514	608
3553	4802	0.812535143816	368
3553	4812	0.812544263816	608
3553	4987	0.843798416892	368
3553	4997	0.843807536892	608
3553	5173	0.875078246322	368
3553	5183	0.875087366322	608
3553	5352	0.906344882308	368
3553	5357	0.906354002308	608
3553	5404	0.937535161371	368
3553	5414	0.937544281371	608
3553	5589	0.968798597543	368
3553	5599	0.968807717543	608
3553	5737	1.000025175923	432
3553	5785	1.000032535923	432
3553	5906	1.000046880628	432
3553	5960	1.000054240628	432
3553	6013	1.000061600628	432
3553	6047	1.000068960628	432
3553	6137	1.000085837481	368
3553	6186	1.000094957481	608
3553	6393	1.000126178945	432
3553	6450	1.000133538945	432
3553	6809	1.093798596439	368
3553	6819	1.093807716439	608
3553	6995	1.125078462897	368
3553	7005	1.125087582897	608
3553	7105	1.218798622268	368
3553	7115	1.218807742268	608
3553	7291	1.250078488724	368
3553	7301	1.250087608724	608
3553	7401	1.343798648096	368
3553	7411	1.343807768096	608
3553	7587	1.375078514552	368
3553	7597	1.375087634552	608
3553	7697	1.468798673923	368
3553	7707	1.468807793923	608
3553	7883	1.500078540381	368
3553	7893	1.500087660381	608
3553	7993	1.593798699751	368
3553	8003	1.593807819751	608
3553	8179	1.625078566208	368
3553	8189	1.625087686208	608
3553	8289	1.718798725578	368
3553	8299	1.718807845578	608
3553	8475	1.750078592036	368
3553	8485	1.750087712036	608
3553	8585	1.843798751407	368
3553	8595	1.843807871407	608
3553	8771	1.875078617863	368
3553	8781	1.875087737863	608
3553	8881	1.968798777235	368
3553	8891	1.968807897235	608
3553	9067	2.000078643691	368
3553	9122	2.000087763691	608
3553	9236	2.000100082098	432
3553	9356	2.000107442098	432
3553	9470	2.000114802098	432
3553	9605	2.000122162098	432
3553	9725	2.000129522098	432
3553	9833	2.000136882098	432
3553	9917	2.000144242098	432
3553	9956	2.000151602098	432
3553	10096	2.093798803062	368
3553	10106	2.093807923062	608
3553	10282	2.12507866952	368
3553	10292	2.12508778952	608
3553	10392	2.21879882889	368
3553	10402	2.21880794889	608
3553	10578	2.250078695347	368
3553	10588	2.250087815347	608
3553	10688	2.343798854718	368
3553	10698	2.343807974718	608
3553	10874	2.375078721175	368
3553	10884	2.375087841175	608
3553	10984	2.468798880546	368
3553	10994	2.468808000546	608
3553	11171	2.500078747003	368
3553	11181	2.500087867003	608
3553	11281	2.593798906374	368
3553	11291	2.593808026374	608
3553	11467	2.62507877283	368
3553	11477	2.62508789283	608
3553	11577	2.718798932201	368
3553	11587	2.718808052201	608
3553	11763	2.750078798658	368
3553	11773	2.750087918658	608
3553	11873	2.843798958029	368
3553	11883	2.843808078029	608
3553	12059	2.875078824486	368
3553	12069	2.875087944486	608
3553	12169	2.968798983857	368
3553	12179	2.968808103857	608
3553	12393	3.000100483478	432
3553	12505	3.000107843478	432
3553	12620	3.000115203478	432
3553	12740	3.000122563478	432
3553	12846	3.000129923478	432
3553	12944	3.000137283478	432
3553	13018	3.000144643478	432
3553	13059	3.000152003478	432
3553	13374	4.000100690149	432
3553	13484	4.000108050149	432
3553	13599	4.000115410149	432
3553	13720	4.000122770149	432
3553	13827	4.000130130149	432
3553	13924	4.000137490149	432
3553	13997	4.000144850149	432
3553	14038	4.000152210149	432
3554	1561	0.1	63840
3554	1977	0.2	29280
3554	2394	0.3	29280
3554	2944	0.4	29280
3554	3367	0.5	29280
3554	3969	0.6	39040
3554	4385	0.7	29280
3554	4802	0.8	29280
3554	5352	0.9	29280
3554	5737	1	29280
3554	6995	1.1	54080
3554	7105	1.2	9760
3554	7401	1.3	19520
3554	7697	1.4	19520
3554	7883	1.5	9760
3554	8179	1.6	19520
3554	8289	1.7	9760
3554	8585	1.8	19520
3554	8881	1.9	19520
3554	9067	2	9760
3554	10282	2.1	54080
3554	10392	2.2	9760
3554	10688	2.3	19520
3554	10984	2.4	19520
3554	11171	2.5	9760
3554	11467	2.6	19520
3554	11577	2.7	9760
3554	11873	2.8	19520
3554	12169	2.9	19520
3554	12393	3	9760
3554	13374	3.1	34560
3554	13374	3.2	0
3554	13374	3.3	0
3554	13374	3.4	0
3554	13374	3.5	0
3554	13374	3.6	0
3554	13374	3.7	0
3554	13374	3.8	0
3554	13374	3.9	0
3554	13374	4	0
3554	14143	4.1	34560
3554	14143	4.2	0
3554	14143	4.3	0
3554	14143	4.4	0
3554	14143	4.5	0

