file 902734 1752524402                                          
version 3
run PrimaryAndHotStandbyMasterClocks-0-20250714-17:18:22-17337
attr configname PrimaryAndHotStandbyMasterClocks
attr datetime 20250714-17:18:22
attr datetimef 20250714-171822
attr experiment PrimaryAndHotStandbyMasterClocks
attr inifile omnetpp.ini
attr iterationvars ""
attr iterationvarsd ""
attr iterationvarsf ""
attr measurement ""
attr network TwoMasterClocksTreeGptpShowcase
attr processid 17337
attr repetition 0
attr replication #0
attr resultdir results
attr runnumber 0
attr seedset 0
config image-path ../../../../images
config network TwoMasterClocksTreeGptpShowcase
config description "Extended tree topology with two master clocks"
config experiment-label PrimaryAndHotStandbyMasterClocks
config *.tsnClock2.clock.typename SettableClock
config *.tsnClock1.gptp.typename Gptp
config *.tsnClock1.gptp.clockModule "\"tsnClock1.clock\""
config *.tsnClock1.gptp.masterPorts "[\"eth0\"]"
config *.tsnClock2.gptp.typename MultiDomainGptp
config *.tsnClock2.gptp.numDomains 2
config *.tsnClock2.gptp.domain[*].clockModule "\"tsnClock2.clock\""
config *.tsnClock2.gptp.domain[0].gptpNodeType "\"SLAVE_NODE\""
config *.tsnClock2.gptp.domain[0].slavePort "\"eth0\""
config *.tsnClock2.gptp.domain[1].gptpNodeType "\"MASTER_NODE\""
config *.tsnClock2.gptp.domain[1].masterPorts "[\"eth0\"]"
config *.tsnSwitch*.clock.typename MultiClock
config *.tsnSwitch*.clock.numClocks 2
config *.tsnSwitch*.gptp.typename MultiDomainGptp
config *.tsnSwitch*.gptp.numDomains 2
config *.tsnSwitch1.gptp.domain[0].slavePort "\"eth0\""
config *.tsnSwitch1.gptp.domain[0].masterPorts "[\"eth1\", \"eth2\", \"eth3\"]"
config *.tsnSwitch1.gptp.domain[1].slavePort "\"eth1\""
config *.tsnSwitch1.gptp.domain[1].masterPorts "[\"eth2\", \"eth3\"]"
config *.tsnSwitch2.gptp.domain[0].slavePort "\"eth1\""
config *.tsnSwitch2.gptp.domain[0].masterPorts "[\"eth0\", \"eth2\", \"eth3\"]"
config *.tsnSwitch2.gptp.domain[1].slavePort "\"eth0\""
config *.tsnSwitch2.gptp.domain[1].masterPorts "[\"eth1\", \"eth2\", \"eth3\"]"
config *.tsnDevice*.clock.typename MultiClock
config *.tsnDevice*.clock.numClocks 2
config *.tsnDevice*.gptp.typename MultiDomainGptp
config *.tsnDevice*.gptp.numDomains 2
config *.tsnDevice1.gptp.clockModule "\"tsnDevice1.clock\""
config *.tsnDevice2.gptp.clockModule "\"tsnDevice2.clock\""
config *.tsnDevice3.gptp.clockModule "\"tsnDevice3.clock\""
config *.tsnDevice4.gptp.clockModule "\"tsnDevice4.clock\""
config *.tsnDevice*.gptp.domain[*].slavePort "\"eth0\""
config **.pdelayInitialOffset 100us
config *.*.gptp.domain[0].syncInitialOffset "syncInterval * 1 / 2"
config *.*.gptp.domain[1].syncInitialOffset "syncInterval * 2 / 2"
config **.clock[0].referenceClock "\"tsnClock1.clock\""
config **.clock[1].referenceClock "\"tsnClock2.clock\""
config *.visualizer.numDataLinkVisualizers 2
config *.visualizer.dataLinkVisualizer[*].displayLinks true
config *.visualizer.dataLinkVisualizer[*].activityLevel "\"protocol\""
config *.visualizer.dataLinkVisualizer[0].packetFilter "expr((has(GptpSync) && GptpSync.domainNumber == 0) || (has(GptpFollowUp) && GptpFollowUp.domainNumber == 0))"
config *.visualizer.dataLinkVisualizer[1].packetFilter "expr((has(GptpSync) && GptpSync.domainNumber == 1) || (has(GptpFollowUp) && GptpFollowUp.domainNumber == 1))"
config *.visualizer.dataLinkVisualizer[0].tags "\"primary GM\""
config *.visualizer.dataLinkVisualizer[1].tags "\"hot-standby GM\""
config *.visualizer.dataLinkVisualizer[0].lineColor "\"blue2\""
config *.visualizer.dataLinkVisualizer[1].lineColor "\"red2\""
config *.visualizer.numInfoVisualizers 8
config *.visualizer.infoVisualizer[0].modules "\"*.tsnDevice*.*.clock[0]\""
config *.visualizer.infoVisualizer[0].textColor "\"blue\""
config *.visualizer.infoVisualizer[1].modules "\"*.tsnDevice*.*.clock[1]\""
config *.visualizer.infoVisualizer[1].textColor "\"red\""
config *.visualizer.infoVisualizer[0..1].placementHint "\"bottom\""
config *.visualizer.infoVisualizer[2].modules "\"*.tsnClock1.clock\""
config *.visualizer.infoVisualizer[3].modules "\"*.tsnClock2.clock\""
config *.visualizer.infoVisualizer[2].textColor "\"blue\""
config *.visualizer.infoVisualizer[3].textColor "\"red\""
config *.tsnClock*.clock.displayStringTextFormat "\"time: %T\""
config *.visualizer.infoVisualizer[4].modules "\"*.tsnSwitch1.*.clock[0]\""
config *.visualizer.infoVisualizer[5].modules "\"*.tsnSwitch1.*.clock[1]\""
config *.visualizer.infoVisualizer[6].modules "\"*.tsnSwitch2.*.clock[0]\""
config *.visualizer.infoVisualizer[7].modules "\"*.tsnSwitch2.*.clock[1]\""
config *.visualizer.infoVisualizer[{4,6}].textColor "\"blue\""
config *.visualizer.infoVisualizer[{5,7}].textColor "\"red\""
config *.tsnDevice*.clock.*.displayStringTextFormat "\"diff: %d\""
config *.tsnSwitch*.clock.*.displayStringTextFormat "\"diff: %d\""
config *.visualizer.infoVisualizer[4..5].placementHint "\"topLeft\""
config *.visualizer.infoVisualizer[6..7].placementHint "\"topRight\""
config experiment-label PrimaryAndHotStandbyMasterClocks
config sim-time-limit 1s
config description abstract
config *.*.hasTimeSynchronization true
config **.tsnClock*.clock.oscillator.typename RandomDriftOscillator
config **.oscillator.changeInterval 12.5ms
config **.oscillator.driftRate "uniform(-100ppm, 100ppm)"
config **.oscillator.driftRateChange "uniform(-1ppm, 1ppm)"
config **.oscillator.driftRateChangeUpperLimit 100ppm
config **.oscillator.driftRateChangeLowerLimit -100ppm
config *.*.eth[*].bitrate 100Mbps
config *.visualizer.typename IntegratedMultiCanvasVisualizer
config *.visualizer.infoVisualizer[*].displayInfos true

vector 0 TwoMasterClocksTreeGptpShowcase.tsnClock1.clock.oscillator driftRateChanged:vector ETV
attr interpolationmode sample-hold
attr recordingmode vector
attr title "Oscillator drift rate"
attr unit ppm
vector 1 TwoMasterClocksTreeGptpShowcase.tsnClock1.clock timeChanged:vector ETV
attr interpolationmode linear
attr recordingmode vector
attr title "Clock time"
vector 2 TwoMasterClocksTreeGptpShowcase.tsnClock1.ethernet.macHeaderInserter incomingPacketLengths:vector ETV
attr interpolationmode none
attr recordingmode vector
attr source "packetLength(merge(packetPushedIn, packetPulledIn))"
attr title "incoming packet lengths"
attr unit b
vector 3 TwoMasterClocksTreeGptpShowcase.tsnClock1.ethernet.macHeaderInserter incomingDataRate:vector ETV
attr interpolationmode linear
attr recordingmode vector
attr source "throughput(merge(packetPushedIn, packetPulledIn))"
attr title "incoming data rate"
attr unit bps
vector 4 TwoMasterClocksTreeGptpShowcase.tsnClock1.ethernet.macHeaderInserter outgoingPacketLengths:vector ETV
attr interpolationmode none
attr recordingmode vector
attr source "packetLength(merge(packetPushedOut, packetPulledOut))"
attr title "outgoing packet lengths"
attr unit b
vector 5 TwoMasterClocksTreeGptpShowcase.tsnClock1.ethernet.macHeaderInserter outgoingDataRate:vector ETV
attr interpolationmode linear
attr recordingmode vector
attr source "throughput(merge(packetPushedOut, packetPulledOut))"
attr title "outgoing data rate"
attr unit bps
vector 6 TwoMasterClocksTreeGptpShowcase.tsnClock1.ethernet.macHeaderInserter flowIncomingPacketLengths:vector ETV
attr interpolationmode none
attr recordingmode vector
attr source "packetLength(demuxFlow(merge(packetPushedIn, packetPulledIn)))"
attr title "flow specific incoming packet lengths"
attr unit b
vector 7 TwoMasterClocksTreeGptpShowcase.tsnClock1.ethernet.macHeaderInserter flowIncomingDataRate:vector ETV
attr interpolationmode linear
attr recordingmode vector
attr source "throughput(demuxFlow(merge(packetPushedIn, packetPulledIn)))"
attr title "flow specific incoming data rate"
attr unit bps
vector 8 TwoMasterClocksTreeGptpShowcase.tsnClock1.ethernet.macHeaderInserter flowOutgoingPacketLengths:vector ETV
attr interpolationmode none
attr recordingmode vector
attr source "packetLength(demuxFlow(merge(packetPushedOut, packetPulledOut)))"
attr title "flow specific outgoing packet lengths"
attr unit b
vector 9 TwoMasterClocksTreeGptpShowcase.tsnClock1.ethernet.macHeaderInserter flowOutgoingDataRate:vector ETV
attr interpolationmode linear
attr recordingmode vector
attr source "throughput(demuxFlow(merge(packetPushedOut, packetPulledOut)))"
attr title "flow specific outgoing data rate"
attr unit bps
vector 10 TwoMasterClocksTreeGptpShowcase.tsnClock1.ethernet.paddingInserter incomingPacketLengths:vector ETV
attr interpolationmode none
attr recordingmode vector
attr source "packetLength(merge(packetPushedIn, packetPulledIn))"
attr title "incoming packet lengths"
attr unit b
vector 11 TwoMasterClocksTreeGptpShowcase.tsnClock1.ethernet.paddingInserter incomingDataRate:vector ETV
attr interpolationmode linear
attr recordingmode vector
attr source "throughput(merge(packetPushedIn, packetPulledIn))"
attr title "incoming data rate"
attr unit bps
vector 12 TwoMasterClocksTreeGptpShowcase.tsnClock1.ethernet.paddingInserter outgoingPacketLengths:vector ETV
attr interpolationmode none
attr recordingmode vector
attr source "packetLength(merge(packetPushedOut, packetPulledOut))"
attr title "outgoing packet lengths"
attr unit b
vector 13 TwoMasterClocksTreeGptpShowcase.tsnClock1.ethernet.paddingInserter outgoingDataRate:vector ETV
attr interpolationmode linear
attr recordingmode vector
attr source "throughput(merge(packetPushedOut, packetPulledOut))"
attr title "outgoing data rate"
attr unit bps
vector 14 TwoMasterClocksTreeGptpShowcase.tsnClock1.ethernet.paddingInserter flowIncomingPacketLengths:vector ETV
attr interpolationmode none
attr recordingmode vector
attr source "packetLength(demuxFlow(merge(packetPushedIn, packetPulledIn)))"
attr title "flow specific incoming packet lengths"
attr unit b
vector 15 TwoMasterClocksTreeGptpShowcase.tsnClock1.ethernet.paddingInserter flowIncomingDataRate:vector ETV
attr interpolationmode linear
attr recordingmode vector
attr source "throughput(demuxFlow(merge(packetPushedIn, packetPulledIn)))"
attr title "flow specific incoming data rate"
attr unit bps
vector 16 TwoMasterClocksTreeGptpShowcase.tsnClock1.ethernet.paddingInserter flowOutgoingPacketLengths:vector ETV
attr interpolationmode none
attr recordingmode vector
attr source "packetLength(demuxFlow(merge(packetPushedOut, packetPulledOut)))"
attr title "flow specific outgoing packet lengths"
attr unit b
vector 17 TwoMasterClocksTreeGptpShowcase.tsnClock1.ethernet.paddingInserter flowOutgoingDataRate:vector ETV
attr interpolationmode linear
attr recordingmode vector
attr source "throughput(demuxFlow(merge(packetPushedOut, packetPulledOut)))"
attr title "flow specific outgoing data rate"
attr unit bps
vector 18 TwoMasterClocksTreeGptpShowcase.tsnClock1.ethernet.fcsInserter incomingPacketLengths:vector ETV
attr interpolationmode none
attr recordingmode vector
attr source "packetLength(merge(packetPushedIn, packetPulledIn))"
attr title "incoming packet lengths"
attr unit b
vector 19 TwoMasterClocksTreeGptpShowcase.tsnClock1.ethernet.fcsInserter incomingDataRate:vector ETV
attr interpolationmode linear
attr recordingmode vector
attr source "throughput(merge(packetPushedIn, packetPulledIn))"
attr title "incoming data rate"
attr unit bps
vector 20 TwoMasterClocksTreeGptpShowcase.tsnClock1.ethernet.fcsInserter outgoingPacketLengths:vector ETV
attr interpolationmode none
attr recordingmode vector
attr source "packetLength(merge(packetPushedOut, packetPulledOut))"
attr title "outgoing packet lengths"
attr unit b
vector 21 TwoMasterClocksTreeGptpShowcase.tsnClock1.ethernet.fcsInserter outgoingDataRate:vector ETV
attr interpolationmode linear
attr recordingmode vector
attr source "throughput(merge(packetPushedOut, packetPulledOut))"
attr title "outgoing data rate"
attr unit bps
vector 22 TwoMasterClocksTreeGptpShowcase.tsnClock1.ethernet.fcsInserter flowIncomingPacketLengths:vector ETV
attr interpolationmode none
attr recordingmode vector
attr source "packetLength(demuxFlow(merge(packetPushedIn, packetPulledIn)))"
attr title "flow specific incoming packet lengths"
attr unit b
vector 23 TwoMasterClocksTreeGptpShowcase.tsnClock1.ethernet.fcsInserter flowIncomingDataRate:vector ETV
attr interpolationmode linear
attr recordingmode vector
attr source "throughput(demuxFlow(merge(packetPushedIn, packetPulledIn)))"
attr title "flow specific incoming data rate"
attr unit bps
vector 24 TwoMasterClocksTreeGptpShowcase.tsnClock1.ethernet.fcsInserter flowOutgoingPacketLengths:vector ETV
attr interpolationmode none
attr recordingmode vector
attr source "packetLength(demuxFlow(merge(packetPushedOut, packetPulledOut)))"
attr title "flow specific outgoing packet lengths"
attr unit b
vector 25 TwoMasterClocksTreeGptpShowcase.tsnClock1.ethernet.fcsInserter flowOutgoingDataRate:vector ETV
attr interpolationmode linear
attr recordingmode vector
attr source "throughput(demuxFlow(merge(packetPushedOut, packetPulledOut)))"
attr title "flow specific outgoing data rate"
attr unit bps
vector 26 TwoMasterClocksTreeGptpShowcase.tsnClock1.ethernet.macHeaderChecker incomingPacketLengths:vector ETV
attr interpolationmode none
attr recordingmode vector
attr source "packetLength(merge(packetPushedIn, packetPulledIn))"
attr title "incoming packet lengths"
attr unit b
vector 27 TwoMasterClocksTreeGptpShowcase.tsnClock1.ethernet.macHeaderChecker incomingDataRate:vector ETV
attr interpolationmode linear
attr recordingmode vector
attr source "throughput(merge(packetPushedIn, packetPulledIn))"
attr title "incoming data rate"
attr unit bps
vector 28 TwoMasterClocksTreeGptpShowcase.tsnClock1.ethernet.macHeaderChecker outgoingPacketLengths:vector ETV
attr interpolationmode none
attr recordingmode vector
attr source "packetLength(merge(packetPushedOut, packetPulledOut))"
attr title "outgoing packet lengths"
attr unit b
vector 29 TwoMasterClocksTreeGptpShowcase.tsnClock1.ethernet.macHeaderChecker outgoingDataRate:vector ETV
attr interpolationmode linear
attr recordingmode vector
attr source "throughput(merge(packetPushedOut, packetPulledOut))"
attr title "outgoing data rate"
attr unit bps
vector 30 TwoMasterClocksTreeGptpShowcase.tsnClock1.ethernet.macHeaderChecker droppedPacketLengths:vector ETV
attr interpolationmode none
attr recordingmode vector
attr source packetLength(packetDropped)
attr title "dropped packet lengths"
attr unit b
vector 31 TwoMasterClocksTreeGptpShowcase.tsnClock1.ethernet.macHeaderChecker droppedDataRate:vector ETV
attr interpolationmode linear
attr recordingmode vector
attr source throughput(packetDropped)
attr title "dropped data rate"
attr unit bps
vector 32 TwoMasterClocksTreeGptpShowcase.tsnClock1.ethernet.macHeaderChecker flowIncomingPacketLengths:vector ETV
attr interpolationmode none
attr recordingmode vector
attr source "packetLength(demuxFlow(merge(packetPushedIn, packetPulledIn)))"
attr title "flow specific incoming packet lengths"
attr unit b
vector 33 TwoMasterClocksTreeGptpShowcase.tsnClock1.ethernet.macHeaderChecker flowIncomingDataRate:vector ETV
attr interpolationmode linear
attr recordingmode vector
attr source "throughput(demuxFlow(merge(packetPushedIn, packetPulledIn)))"
attr title "flow specific incoming data rate"
attr unit bps
vector 34 TwoMasterClocksTreeGptpShowcase.tsnClock1.ethernet.macHeaderChecker flowOutgoingPacketLengths:vector ETV
attr interpolationmode none
attr recordingmode vector
attr source "packetLength(demuxFlow(merge(packetPushedOut, packetPulledOut)))"
attr title "flow specific outgoing packet lengths"
attr unit b
vector 35 TwoMasterClocksTreeGptpShowcase.tsnClock1.ethernet.macHeaderChecker flowOutgoingDataRate:vector ETV
attr interpolationmode linear
attr recordingmode vector
attr source "throughput(demuxFlow(merge(packetPushedOut, packetPulledOut)))"
attr title "flow specific outgoing data rate"
attr unit bps
vector 36 TwoMasterClocksTreeGptpShowcase.tsnClock1.ethernet.macHeaderChecker flowDroppedPacketLengths:vector ETV
attr interpolationmode none
attr recordingmode vector
attr source packetLength(demuxFlow(packetDropped))
attr title "flow specific dropped packet lengths"
attr unit b
vector 37 TwoMasterClocksTreeGptpShowcase.tsnClock1.ethernet.macHeaderChecker flowDroppedDataRate:vector ETV
attr interpolationmode linear
attr recordingmode vector
attr source throughput(demuxFlow(packetDropped))
attr title "flow specific dropped data rate"
attr unit bps
vector 38 TwoMasterClocksTreeGptpShowcase.tsnClock1.ethernet.fcsChecker incomingPacketLengths:vector ETV
attr interpolationmode none
attr recordingmode vector
attr source "packetLength(merge(packetPushedIn, packetPulledIn))"
attr title "incoming packet lengths"
attr unit b
vector 39 TwoMasterClocksTreeGptpShowcase.tsnClock1.ethernet.fcsChecker incomingDataRate:vector ETV
attr interpolationmode linear
attr recordingmode vector
attr source "throughput(merge(packetPushedIn, packetPulledIn))"
attr title "incoming data rate"
attr unit bps
vector 40 TwoMasterClocksTreeGptpShowcase.tsnClock1.ethernet.fcsChecker outgoingPacketLengths:vector ETV
attr interpolationmode none
attr recordingmode vector
attr source "packetLength(merge(packetPushedOut, packetPulledOut))"
attr title "outgoing packet lengths"
attr unit b
vector 41 TwoMasterClocksTreeGptpShowcase.tsnClock1.ethernet.fcsChecker outgoingDataRate:vector ETV
attr interpolationmode linear
attr recordingmode vector
attr source "throughput(merge(packetPushedOut, packetPulledOut))"
attr title "outgoing data rate"
attr unit bps
vector 42 TwoMasterClocksTreeGptpShowcase.tsnClock1.ethernet.fcsChecker droppedPacketLengths:vector ETV
attr interpolationmode none
attr recordingmode vector
attr source packetLength(packetDropped)
attr title "dropped packet lengths"
attr unit b
vector 43 TwoMasterClocksTreeGptpShowcase.tsnClock1.ethernet.fcsChecker droppedDataRate:vector ETV
attr interpolationmode linear
attr recordingmode vector
attr source throughput(packetDropped)
attr title "dropped data rate"
attr unit bps
vector 44 TwoMasterClocksTreeGptpShowcase.tsnClock1.ethernet.fcsChecker flowIncomingPacketLengths:vector ETV
attr interpolationmode none
attr recordingmode vector
attr source "packetLength(demuxFlow(merge(packetPushedIn, packetPulledIn)))"
attr title "flow specific incoming packet lengths"
attr unit b
vector 45 TwoMasterClocksTreeGptpShowcase.tsnClock1.ethernet.fcsChecker flowIncomingDataRate:vector ETV
attr interpolationmode linear
attr recordingmode vector
attr source "throughput(demuxFlow(merge(packetPushedIn, packetPulledIn)))"
attr title "flow specific incoming data rate"
attr unit bps
vector 46 TwoMasterClocksTreeGptpShowcase.tsnClock1.ethernet.fcsChecker flowOutgoingPacketLengths:vector ETV
attr interpolationmode none
attr recordingmode vector
attr source "packetLength(demuxFlow(merge(packetPushedOut, packetPulledOut)))"
attr title "flow specific outgoing packet lengths"
attr unit b
vector 47 TwoMasterClocksTreeGptpShowcase.tsnClock1.ethernet.fcsChecker flowOutgoingDataRate:vector ETV
attr interpolationmode linear
attr recordingmode vector
attr source "throughput(demuxFlow(merge(packetPushedOut, packetPulledOut)))"
attr title "flow specific outgoing data rate"
attr unit bps
vector 48 TwoMasterClocksTreeGptpShowcase.tsnClock1.ethernet.fcsChecker flowDroppedPacketLengths:vector ETV
attr interpolationmode none
attr recordingmode vector
attr source packetLength(demuxFlow(packetDropped))
attr title "flow specific dropped packet lengths"
attr unit b
vector 49 TwoMasterClocksTreeGptpShowcase.tsnClock1.ethernet.fcsChecker flowDroppedDataRate:vector ETV
attr interpolationmode linear
attr recordingmode vector
attr source throughput(demuxFlow(packetDropped))
attr title "flow specific dropped data rate"
attr unit bps
vector 50 TwoMasterClocksTreeGptpShowcase.tsnClock1.lo[0].lo rcvdPkFromHl:vector(packetBytes) ETV
attr interpolationmode none
attr recordingmode vector(packetBytes)
attr source packetReceivedFromUpper
attr title "packets received from higher layer, packetBytes"
vector 51 TwoMasterClocksTreeGptpShowcase.tsnClock1.lo[0].lo passedUpPk:vector(packetBytes) ETV
attr interpolationmode none
attr recordingmode vector(packetBytes)
attr source packetSentToUpper
attr title "packets passed to higher layer, packetBytes"
vector 52 TwoMasterClocksTreeGptpShowcase.tsnClock1.lo[0] packetDropInterfaceDown:vector(packetBytes) ETV
attr interpolationmode none
attr recordingmode vector(packetBytes)
attr source packetDropReasonIsInterfaceDown(packetDropped)
attr title "packet drops: interface down, packetBytes"
vector 53 TwoMasterClocksTreeGptpShowcase.tsnClock1.lo[0] packetDropNoCarrier:vector(packetBytes) ETV
attr interpolationmode none
attr recordingmode vector(packetBytes)
attr source packetDropReasonIsNoCarrier(packetDropped)
attr title "packet drops: no carrier, packetBytes"
vector 54 TwoMasterClocksTreeGptpShowcase.tsnClock1.eth[0].macLayer.queue queueLength:vector ETV
attr autoWarmupFilter false
attr interpolationmode sample-hold
attr recordingmode vector
attr source "warmup(atomic(constant0(packetPushEnded) + count(packetPushStarted) - count(packetPulled) - count(packetRemoved) - count(packetDropped)))"
attr title "queue length"
attr unit pk
vector 55 TwoMasterClocksTreeGptpShowcase.tsnClock1.eth[0].macLayer.queue queueBitLength:vector ETV
attr autoWarmupFilter false
attr interpolationmode sample-hold
attr recordingmode vector
attr source "warmup(atomic(constant0(packetPushEnded) + sum(packetLength(packetPushStarted)) - sum(packetLength(packetPulled)) - sum(packetLength(packetRemoved)) - sum(packetLength(packetDropped))))"
attr title "queue bit length"
attr unit b
vector 56 TwoMasterClocksTreeGptpShowcase.tsnClock1.eth[0].macLayer.queue queueingTime:vector ETV
attr interpolationmode none
attr recordingmode vector
attr source queueingTime(packetPulled)
attr title "queueing times"
attr unit s
vector 57 TwoMasterClocksTreeGptpShowcase.tsnClock1.eth[0].macLayer.queue incomingPacketLengths:vector ETV
attr interpolationmode none
attr recordingmode vector
attr source packetLength(packetPushStarted)
attr title "incoming packet lengths"
attr unit b
vector 58 TwoMasterClocksTreeGptpShowcase.tsnClock1.eth[0].macLayer.queue incomingDataRate:vector ETV
attr interpolationmode linear
attr recordingmode vector
attr source throughput(packetPushStarted)
attr title "incoming datarate"
attr unit bps
vector 59 TwoMasterClocksTreeGptpShowcase.tsnClock1.eth[0].macLayer.queue outgoingPacketLengths:vector ETV
attr interpolationmode none
attr recordingmode vector
attr source packetLength(packetPulled)
attr title "outgoing packet lengths"
attr unit b
vector 60 TwoMasterClocksTreeGptpShowcase.tsnClock1.eth[0].macLayer.queue outgoingDataRate:vector ETV
attr interpolationmode linear
attr recordingmode vector
attr source throughput(packetPulled)
attr title "outgoing datarate"
attr unit bps
vector 61 TwoMasterClocksTreeGptpShowcase.tsnClock1.eth[0].macLayer.queue droppedPacketLengthsQueueOverflow:vector ETV
attr interpolationmode none
attr recordingmode vector
attr source packetLength(packetDropReasonIsQueueOverflow(packetDropped))
attr title "dropped packet lengths: queue overflow"
attr unit b
vector 62 TwoMasterClocksTreeGptpShowcase.tsnClock1.eth[0].macLayer.queue flowQueueingTime:vector ETV
attr interpolationmode none
attr recordingmode vector
attr source queueingTime(demuxFlow(packetPulled))
attr title "flow queueing times"
attr unit s
vector 63 TwoMasterClocksTreeGptpShowcase.tsnClock1.eth[0].macLayer.queue flowIncomingDataRate:vector ETV
attr interpolationmode linear
attr recordingmode vector
attr source throughput(flowPacketLength(demuxFlow(packetPushStarted)))
attr title "flow specific incoming data rate"
attr unit bps
vector 64 TwoMasterClocksTreeGptpShowcase.tsnClock1.eth[0].macLayer.queue flowOutgoingDataRate:vector ETV
attr interpolationmode linear
attr recordingmode vector
attr source throughput(flowPacketLength(demuxFlow(packetPulled)))
attr title "flow specific outgoing data rate"
attr unit bps
vector 65 TwoMasterClocksTreeGptpShowcase.tsnClock1.eth[0].macLayer.server incomingPacketLengths:vector ETV
attr interpolationmode none
attr recordingmode vector
attr source packetLength(packetPulled)
attr title "incoming packet lengths"
attr unit b
vector 66 TwoMasterClocksTreeGptpShowcase.tsnClock1.eth[0].macLayer.server incomingDataRate:vector ETV
attr interpolationmode linear
attr recordingmode vector
attr source throughput(packetPulled)
attr title "incoming datarate"
attr unit bps
vector 67 TwoMasterClocksTreeGptpShowcase.tsnClock1.eth[0].macLayer.server outgoingPacketLengths:vector ETV
attr interpolationmode none
attr recordingmode vector
attr source packetLength(packetPushed)
attr title "outgoing packet lengths"
attr unit b
vector 68 TwoMasterClocksTreeGptpShowcase.tsnClock1.eth[0].macLayer.server outgoingDataRate:vector ETV
attr interpolationmode linear
attr recordingmode vector
attr source throughput(packetPushed)
attr title "outgoing datarate"
attr unit bps
vector 69 TwoMasterClocksTreeGptpShowcase.tsnClock1.eth[0].macLayer.outboundEmitter incomingPacketLengths:vector ETV
attr interpolationmode none
attr recordingmode vector
attr source "packetLength(merge(packetPushedIn, packetPulledIn))"
attr title "incoming packet lengths"
attr unit b
vector 70 TwoMasterClocksTreeGptpShowcase.tsnClock1.eth[0].macLayer.outboundEmitter incomingDataRate:vector ETV
attr interpolationmode linear
attr recordingmode vector
attr source "throughput(merge(packetPushedIn, packetPulledIn))"
attr title "incoming data rate"
attr unit bps
vector 71 TwoMasterClocksTreeGptpShowcase.tsnClock1.eth[0].macLayer.outboundEmitter outgoingPacketLengths:vector ETV
attr interpolationmode none
attr recordingmode vector
attr source "packetLength(merge(packetPushedOut, packetPulledOut))"
attr title "outgoing packet lengths"
attr unit b
vector 72 TwoMasterClocksTreeGptpShowcase.tsnClock1.eth[0].macLayer.outboundEmitter outgoingDataRate:vector ETV
attr interpolationmode linear
attr recordingmode vector
attr source "throughput(merge(packetPushedOut, packetPulledOut))"
attr title "outgoing data rate"
attr unit bps
vector 73 TwoMasterClocksTreeGptpShowcase.tsnClock1.eth[0].macLayer.outboundEmitter flowIncomingPacketLengths:vector ETV
attr interpolationmode none
attr recordingmode vector
attr source "packetLength(demuxFlow(merge(packetPushedIn, packetPulledIn)))"
attr title "flow specific incoming packet lengths"
attr unit b
vector 74 TwoMasterClocksTreeGptpShowcase.tsnClock1.eth[0].macLayer.outboundEmitter flowIncomingDataRate:vector ETV
attr interpolationmode linear
attr recordingmode vector
attr source "throughput(demuxFlow(merge(packetPushedIn, packetPulledIn)))"
attr title "flow specific incoming data rate"
attr unit bps
vector 75 TwoMasterClocksTreeGptpShowcase.tsnClock1.eth[0].macLayer.outboundEmitter flowOutgoingPacketLengths:vector ETV
attr interpolationmode none
attr recordingmode vector
attr source "packetLength(demuxFlow(merge(packetPushedOut, packetPulledOut)))"
attr title "flow specific outgoing packet lengths"
attr unit b
vector 76 TwoMasterClocksTreeGptpShowcase.tsnClock1.eth[0].macLayer.outboundEmitter flowOutgoingDataRate:vector ETV
attr interpolationmode linear
attr recordingmode vector
attr source "throughput(demuxFlow(merge(packetPushedOut, packetPulledOut)))"
attr title "flow specific outgoing data rate"
attr unit bps
vector 77 TwoMasterClocksTreeGptpShowcase.tsnClock1.eth[0].macLayer.fcsChecker incomingPacketLengths:vector ETV
attr interpolationmode none
attr recordingmode vector
attr source "packetLength(merge(packetPushedIn, packetPulledIn))"
attr title "incoming packet lengths"
attr unit b
vector 78 TwoMasterClocksTreeGptpShowcase.tsnClock1.eth[0].macLayer.fcsChecker incomingDataRate:vector ETV
attr interpolationmode linear
attr recordingmode vector
attr source "throughput(merge(packetPushedIn, packetPulledIn))"
attr title "incoming data rate"
attr unit bps
vector 79 TwoMasterClocksTreeGptpShowcase.tsnClock1.eth[0].macLayer.fcsChecker outgoingPacketLengths:vector ETV
attr interpolationmode none
attr recordingmode vector
attr source "packetLength(merge(packetPushedOut, packetPulledOut))"
attr title "outgoing packet lengths"
attr unit b
vector 80 TwoMasterClocksTreeGptpShowcase.tsnClock1.eth[0].macLayer.fcsChecker outgoingDataRate:vector ETV
attr interpolationmode linear
attr recordingmode vector
attr source "throughput(merge(packetPushedOut, packetPulledOut))"
attr title "outgoing data rate"
attr unit bps
vector 81 TwoMasterClocksTreeGptpShowcase.tsnClock1.eth[0].macLayer.fcsChecker droppedPacketLengths:vector ETV
attr interpolationmode none
attr recordingmode vector
attr source packetLength(packetDropped)
attr title "dropped packet lengths"
attr unit b
vector 82 TwoMasterClocksTreeGptpShowcase.tsnClock1.eth[0].macLayer.fcsChecker droppedDataRate:vector ETV
attr interpolationmode linear
attr recordingmode vector
attr source throughput(packetDropped)
attr title "dropped data rate"
attr unit bps
vector 83 TwoMasterClocksTreeGptpShowcase.tsnClock1.eth[0].macLayer.fcsChecker flowIncomingPacketLengths:vector ETV
attr interpolationmode none
attr recordingmode vector
attr source "packetLength(demuxFlow(merge(packetPushedIn, packetPulledIn)))"
attr title "flow specific incoming packet lengths"
attr unit b
vector 84 TwoMasterClocksTreeGptpShowcase.tsnClock1.eth[0].macLayer.fcsChecker flowIncomingDataRate:vector ETV
attr interpolationmode linear
attr recordingmode vector
attr source "throughput(demuxFlow(merge(packetPushedIn, packetPulledIn)))"
attr title "flow specific incoming data rate"
attr unit bps
vector 85 TwoMasterClocksTreeGptpShowcase.tsnClock1.eth[0].macLayer.fcsChecker flowOutgoingPacketLengths:vector ETV
attr interpolationmode none
attr recordingmode vector
attr source "packetLength(demuxFlow(merge(packetPushedOut, packetPulledOut)))"
attr title "flow specific outgoing packet lengths"
attr unit b
vector 86 TwoMasterClocksTreeGptpShowcase.tsnClock1.eth[0].macLayer.fcsChecker flowOutgoingDataRate:vector ETV
attr interpolationmode linear
attr recordingmode vector
attr source "throughput(demuxFlow(merge(packetPushedOut, packetPulledOut)))"
attr title "flow specific outgoing data rate"
attr unit bps
vector 87 TwoMasterClocksTreeGptpShowcase.tsnClock1.eth[0].macLayer.fcsChecker flowDroppedPacketLengths:vector ETV
attr interpolationmode none
attr recordingmode vector
attr source packetLength(demuxFlow(packetDropped))
attr title "flow specific dropped packet lengths"
attr unit b
vector 88 TwoMasterClocksTreeGptpShowcase.tsnClock1.eth[0].macLayer.fcsChecker flowDroppedDataRate:vector ETV
attr interpolationmode linear
attr recordingmode vector
attr source throughput(demuxFlow(packetDropped))
attr title "flow specific dropped data rate"
attr unit bps
vector 89 TwoMasterClocksTreeGptpShowcase.tsnClock1.eth[0].macLayer.inboundEmitter incomingPacketLengths:vector ETV
attr interpolationmode none
attr recordingmode vector
attr source "packetLength(merge(packetPushedIn, packetPulledIn))"
attr title "incoming packet lengths"
attr unit b
vector 90 TwoMasterClocksTreeGptpShowcase.tsnClock1.eth[0].macLayer.inboundEmitter incomingDataRate:vector ETV
attr interpolationmode linear
attr recordingmode vector
attr source "throughput(merge(packetPushedIn, packetPulledIn))"
attr title "incoming data rate"
attr unit bps
vector 91 TwoMasterClocksTreeGptpShowcase.tsnClock1.eth[0].macLayer.inboundEmitter outgoingPacketLengths:vector ETV
attr interpolationmode none
attr recordingmode vector
attr source "packetLength(merge(packetPushedOut, packetPulledOut))"
attr title "outgoing packet lengths"
attr unit b
vector 92 TwoMasterClocksTreeGptpShowcase.tsnClock1.eth[0].macLayer.inboundEmitter outgoingDataRate:vector ETV
attr interpolationmode linear
attr recordingmode vector
attr source "throughput(merge(packetPushedOut, packetPulledOut))"
attr title "outgoing data rate"
attr unit bps
vector 93 TwoMasterClocksTreeGptpShowcase.tsnClock1.eth[0].macLayer.inboundEmitter flowIncomingPacketLengths:vector ETV
attr interpolationmode none
attr recordingmode vector
attr source "packetLength(demuxFlow(merge(packetPushedIn, packetPulledIn)))"
attr title "flow specific incoming packet lengths"
attr unit b
vector 94 TwoMasterClocksTreeGptpShowcase.tsnClock1.eth[0].macLayer.inboundEmitter flowIncomingDataRate:vector ETV
attr interpolationmode linear
attr recordingmode vector
attr source "throughput(demuxFlow(merge(packetPushedIn, packetPulledIn)))"
attr title "flow specific incoming data rate"
attr unit bps
vector 95 TwoMasterClocksTreeGptpShowcase.tsnClock1.eth[0].macLayer.inboundEmitter flowOutgoingPacketLengths:vector ETV
attr interpolationmode none
attr recordingmode vector
attr source "packetLength(demuxFlow(merge(packetPushedOut, packetPulledOut)))"
attr title "flow specific outgoing packet lengths"
attr unit b
vector 96 TwoMasterClocksTreeGptpShowcase.tsnClock1.eth[0].macLayer.inboundEmitter flowOutgoingDataRate:vector ETV
attr interpolationmode linear
attr recordingmode vector
attr source "throughput(demuxFlow(merge(packetPushedOut, packetPulledOut)))"
attr title "flow specific outgoing data rate"
attr unit bps
vector 97 TwoMasterClocksTreeGptpShowcase.tsnClock1.eth[0].phyLayer.phyHeaderInserter incomingPacketLengths:vector ETV
attr interpolationmode none
attr recordingmode vector
attr source "packetLength(merge(packetPushedIn, packetPulledIn))"
attr title "incoming packet lengths"
attr unit b
vector 98 TwoMasterClocksTreeGptpShowcase.tsnClock1.eth[0].phyLayer.phyHeaderInserter incomingDataRate:vector ETV
attr interpolationmode linear
attr recordingmode vector
attr source "throughput(merge(packetPushedIn, packetPulledIn))"
attr title "incoming data rate"
attr unit bps
vector 99 TwoMasterClocksTreeGptpShowcase.tsnClock1.eth[0].phyLayer.phyHeaderInserter outgoingPacketLengths:vector ETV
attr interpolationmode none
attr recordingmode vector
attr source "packetLength(merge(packetPushedOut, packetPulledOut))"
attr title "outgoing packet lengths"
attr unit b
vector 100 TwoMasterClocksTreeGptpShowcase.tsnClock1.eth[0].phyLayer.phyHeaderInserter outgoingDataRate:vector ETV
attr interpolationmode linear
attr recordingmode vector
attr source "throughput(merge(packetPushedOut, packetPulledOut))"
attr title "outgoing data rate"
attr unit bps
vector 101 TwoMasterClocksTreeGptpShowcase.tsnClock1.eth[0].phyLayer.phyHeaderInserter flowIncomingPacketLengths:vector ETV
attr interpolationmode none
attr recordingmode vector
attr source "packetLength(demuxFlow(merge(packetPushedIn, packetPulledIn)))"
attr title "flow specific incoming packet lengths"
attr unit b
vector 102 TwoMasterClocksTreeGptpShowcase.tsnClock1.eth[0].phyLayer.phyHeaderInserter flowIncomingDataRate:vector ETV
attr interpolationmode linear
attr recordingmode vector
attr source "throughput(demuxFlow(merge(packetPushedIn, packetPulledIn)))"
attr title "flow specific incoming data rate"
attr unit bps
vector 103 TwoMasterClocksTreeGptpShowcase.tsnClock1.eth[0].phyLayer.phyHeaderInserter flowOutgoingPacketLengths:vector ETV
attr interpolationmode none
attr recordingmode vector
attr source "packetLength(demuxFlow(merge(packetPushedOut, packetPulledOut)))"
attr title "flow specific outgoing packet lengths"
attr unit b
vector 104 TwoMasterClocksTreeGptpShowcase.tsnClock1.eth[0].phyLayer.phyHeaderInserter flowOutgoingDataRate:vector ETV
attr interpolationmode linear
attr recordingmode vector
attr source "throughput(demuxFlow(merge(packetPushedOut, packetPulledOut)))"
attr title "flow specific outgoing data rate"
attr unit bps
vector 105 TwoMasterClocksTreeGptpShowcase.tsnClock1.eth[0].phyLayer.interFrameGapInserter interpacketGap:vector ETV
attr interpolationmode sample-hold
attr recordingmode vector
attr source "count(interpacketGapStarted) - count(interpacketGapEnded)"
attr title "interpacket gap state"
attr type int
vector 106 TwoMasterClocksTreeGptpShowcase.tsnClock1.eth[0].phyLayer.outboundEmitter incomingPacketLengths:vector ETV
attr interpolationmode none
attr recordingmode vector
attr source "packetLength(merge(packetPushedIn, packetPulledIn))"
attr title "incoming packet lengths"
attr unit b
vector 107 TwoMasterClocksTreeGptpShowcase.tsnClock1.eth[0].phyLayer.outboundEmitter incomingDataRate:vector ETV
attr interpolationmode linear
attr recordingmode vector
attr source "throughput(merge(packetPushedIn, packetPulledIn))"
attr title "incoming data rate"
attr unit bps
vector 108 TwoMasterClocksTreeGptpShowcase.tsnClock1.eth[0].phyLayer.outboundEmitter outgoingPacketLengths:vector ETV
attr interpolationmode none
attr recordingmode vector
attr source "packetLength(merge(packetPushedOut, packetPulledOut))"
attr title "outgoing packet lengths"
attr unit b
vector 109 TwoMasterClocksTreeGptpShowcase.tsnClock1.eth[0].phyLayer.outboundEmitter outgoingDataRate:vector ETV
attr interpolationmode linear
attr recordingmode vector
attr source "throughput(merge(packetPushedOut, packetPulledOut))"
attr title "outgoing data rate"
attr unit bps
vector 110 TwoMasterClocksTreeGptpShowcase.tsnClock1.eth[0].phyLayer.outboundEmitter flowIncomingPacketLengths:vector ETV
attr interpolationmode none
attr recordingmode vector
attr source "packetLength(demuxFlow(merge(packetPushedIn, packetPulledIn)))"
attr title "flow specific incoming packet lengths"
attr unit b
vector 111 TwoMasterClocksTreeGptpShowcase.tsnClock1.eth[0].phyLayer.outboundEmitter flowIncomingDataRate:vector ETV
attr interpolationmode linear
attr recordingmode vector
attr source "throughput(demuxFlow(merge(packetPushedIn, packetPulledIn)))"
attr title "flow specific incoming data rate"
attr unit bps
vector 112 TwoMasterClocksTreeGptpShowcase.tsnClock1.eth[0].phyLayer.outboundEmitter flowOutgoingPacketLengths:vector ETV
attr interpolationmode none
attr recordingmode vector
attr source "packetLength(demuxFlow(merge(packetPushedOut, packetPulledOut)))"
attr title "flow specific outgoing packet lengths"
attr unit b
vector 113 TwoMasterClocksTreeGptpShowcase.tsnClock1.eth[0].phyLayer.outboundEmitter flowOutgoingDataRate:vector ETV
attr interpolationmode linear
attr recordingmode vector
attr source "throughput(demuxFlow(merge(packetPushedOut, packetPulledOut)))"
attr title "flow specific outgoing data rate"
attr unit bps
vector 114 TwoMasterClocksTreeGptpShowcase.tsnClock1.eth[0].phyLayer.transmitter transmitting:vector ETV
attr interpolationmode sample-hold
attr recordingmode vector
attr source "count(transmissionStarted) - count(transmissionEnded)"
attr title "transmitting state"
attr type int
vector 115 TwoMasterClocksTreeGptpShowcase.tsnClock1.eth[0].phyLayer.transmitter throughput:vector ETV
attr interpolationmode linear
attr recordingmode vector
attr source throughput(transmissionEnded)
attr title throughput
attr unit bps
vector 116 TwoMasterClocksTreeGptpShowcase.tsnClock1.eth[0].phyLayer.transmitter utilization:vector ETV
attr interpolationmode linear
attr recordingmode vector
attr source "100 * utilization(count(transmissionStarted) - count(transmissionEnded))"
attr title utilization
attr unit %
vector 117 TwoMasterClocksTreeGptpShowcase.tsnClock1.eth[0].phyLayer.transmitter transmissionTime:vector ETV
attr interpolationmode none
attr recordingmode vector
attr source packetDuration(transmissionEnded)
attr title "transmission time"
attr unit s
vector 118 TwoMasterClocksTreeGptpShowcase.tsnClock1.eth[0].phyLayer.transmitter flowTransmissionTime:vector ETV
attr interpolationmode none
attr recordingmode vector
attr source packetDuration(demuxFlow(transmissionEnded))
attr title "flow transmission time"
attr unit s
vector 119 TwoMasterClocksTreeGptpShowcase.tsnClock1.eth[0].phyLayer.phyHeaderChecker incomingPacketLengths:vector ETV
attr interpolationmode none
attr recordingmode vector
attr source "packetLength(merge(packetPushedIn, packetPulledIn))"
attr title "incoming packet lengths"
attr unit b
vector 120 TwoMasterClocksTreeGptpShowcase.tsnClock1.eth[0].phyLayer.phyHeaderChecker incomingDataRate:vector ETV
attr interpolationmode linear
attr recordingmode vector
attr source "throughput(merge(packetPushedIn, packetPulledIn))"
attr title "incoming data rate"
attr unit bps
vector 121 TwoMasterClocksTreeGptpShowcase.tsnClock1.eth[0].phyLayer.phyHeaderChecker outgoingPacketLengths:vector ETV
attr interpolationmode none
attr recordingmode vector
attr source "packetLength(merge(packetPushedOut, packetPulledOut))"
attr title "outgoing packet lengths"
attr unit b
vector 122 TwoMasterClocksTreeGptpShowcase.tsnClock1.eth[0].phyLayer.phyHeaderChecker outgoingDataRate:vector ETV
attr interpolationmode linear
attr recordingmode vector
attr source "throughput(merge(packetPushedOut, packetPulledOut))"
attr title "outgoing data rate"
attr unit bps
vector 123 TwoMasterClocksTreeGptpShowcase.tsnClock1.eth[0].phyLayer.phyHeaderChecker droppedPacketLengths:vector ETV
attr interpolationmode none
attr recordingmode vector
attr source packetLength(packetDropped)
attr title "dropped packet lengths"
attr unit b
vector 124 TwoMasterClocksTreeGptpShowcase.tsnClock1.eth[0].phyLayer.phyHeaderChecker droppedDataRate:vector ETV
attr interpolationmode linear
attr recordingmode vector
attr source throughput(packetDropped)
attr title "dropped data rate"
attr unit bps
vector 125 TwoMasterClocksTreeGptpShowcase.tsnClock1.eth[0].phyLayer.phyHeaderChecker flowIncomingPacketLengths:vector ETV
attr interpolationmode none
attr recordingmode vector
attr source "packetLength(demuxFlow(merge(packetPushedIn, packetPulledIn)))"
attr title "flow specific incoming packet lengths"
attr unit b
vector 126 TwoMasterClocksTreeGptpShowcase.tsnClock1.eth[0].phyLayer.phyHeaderChecker flowIncomingDataRate:vector ETV
attr interpolationmode linear
attr recordingmode vector
attr source "throughput(demuxFlow(merge(packetPushedIn, packetPulledIn)))"
attr title "flow specific incoming data rate"
attr unit bps
vector 127 TwoMasterClocksTreeGptpShowcase.tsnClock1.eth[0].phyLayer.phyHeaderChecker flowOutgoingPacketLengths:vector ETV
attr interpolationmode none
attr recordingmode vector
attr source "packetLength(demuxFlow(merge(packetPushedOut, packetPulledOut)))"
attr title "flow specific outgoing packet lengths"
attr unit b
vector 128 TwoMasterClocksTreeGptpShowcase.tsnClock1.eth[0].phyLayer.phyHeaderChecker flowOutgoingDataRate:vector ETV
attr interpolationmode linear
attr recordingmode vector
attr source "throughput(demuxFlow(merge(packetPushedOut, packetPulledOut)))"
attr title "flow specific outgoing data rate"
attr unit bps
vector 129 TwoMasterClocksTreeGptpShowcase.tsnClock1.eth[0].phyLayer.phyHeaderChecker flowDroppedPacketLengths:vector ETV
attr interpolationmode none
attr recordingmode vector
attr source packetLength(demuxFlow(packetDropped))
attr title "flow specific dropped packet lengths"
attr unit b
vector 130 TwoMasterClocksTreeGptpShowcase.tsnClock1.eth[0].phyLayer.phyHeaderChecker flowDroppedDataRate:vector ETV
attr interpolationmode linear
attr recordingmode vector
attr source throughput(demuxFlow(packetDropped))
attr title "flow specific dropped data rate"
attr unit bps
vector 131 TwoMasterClocksTreeGptpShowcase.tsnClock1.eth[0].phyLayer.inboundEmitter incomingPacketLengths:vector ETV
attr interpolationmode none
attr recordingmode vector
attr source "packetLength(merge(packetPushedIn, packetPulledIn))"
attr title "incoming packet lengths"
attr unit b
vector 132 TwoMasterClocksTreeGptpShowcase.tsnClock1.eth[0].phyLayer.inboundEmitter incomingDataRate:vector ETV
attr interpolationmode linear
attr recordingmode vector
attr source "throughput(merge(packetPushedIn, packetPulledIn))"
attr title "incoming data rate"
attr unit bps
vector 133 TwoMasterClocksTreeGptpShowcase.tsnClock1.eth[0].phyLayer.inboundEmitter outgoingPacketLengths:vector ETV
attr interpolationmode none
attr recordingmode vector
attr source "packetLength(merge(packetPushedOut, packetPulledOut))"
attr title "outgoing packet lengths"
attr unit b
vector 134 TwoMasterClocksTreeGptpShowcase.tsnClock1.eth[0].phyLayer.inboundEmitter outgoingDataRate:vector ETV
attr interpolationmode linear
attr recordingmode vector
attr source "throughput(merge(packetPushedOut, packetPulledOut))"
attr title "outgoing data rate"
attr unit bps
vector 135 TwoMasterClocksTreeGptpShowcase.tsnClock1.eth[0].phyLayer.inboundEmitter flowIncomingPacketLengths:vector ETV
attr interpolationmode none
attr recordingmode vector
attr source "packetLength(demuxFlow(merge(packetPushedIn, packetPulledIn)))"
attr title "flow specific incoming packet lengths"
attr unit b
vector 136 TwoMasterClocksTreeGptpShowcase.tsnClock1.eth[0].phyLayer.inboundEmitter flowIncomingDataRate:vector ETV
attr interpolationmode linear
attr recordingmode vector
attr source "throughput(demuxFlow(merge(packetPushedIn, packetPulledIn)))"
attr title "flow specific incoming data rate"
attr unit bps
vector 137 TwoMasterClocksTreeGptpShowcase.tsnClock1.eth[0].phyLayer.inboundEmitter flowOutgoingPacketLengths:vector ETV
attr interpolationmode none
attr recordingmode vector
attr source "packetLength(demuxFlow(merge(packetPushedOut, packetPulledOut)))"
attr title "flow specific outgoing packet lengths"
attr unit b
vector 138 TwoMasterClocksTreeGptpShowcase.tsnClock1.eth[0].phyLayer.inboundEmitter flowOutgoingDataRate:vector ETV
attr interpolationmode linear
attr recordingmode vector
attr source "throughput(demuxFlow(merge(packetPushedOut, packetPulledOut)))"
attr title "flow specific outgoing data rate"
attr unit bps
vector 139 TwoMasterClocksTreeGptpShowcase.tsnClock1.eth[0].phyLayer.receiver throughput:vector ETV
attr interpolationmode linear
attr recordingmode vector
attr source throughput(receptionEnded)
attr title throughput
attr unit bps
vector 140 TwoMasterClocksTreeGptpShowcase.tsnClock1.eth[0].phyLayer.receiver receptionTime:vector ETV
attr interpolationmode none
attr recordingmode vector
attr source packetDuration(receptionEnded)
attr title "reception time"
attr unit s
vector 141 TwoMasterClocksTreeGptpShowcase.tsnClock1.eth[0].phyLayer.receiver flowReceptionTime:vector ETV
attr interpolationmode none
attr recordingmode vector
attr source packetDuration(demuxFlow(receptionEnded))
attr title "flow reception time"
attr unit s
vector 142 TwoMasterClocksTreeGptpShowcase.tsnClock1.eth[0] packetDropInterfaceDown:vector(packetBytes) ETV
attr interpolationmode none
attr recordingmode vector(packetBytes)
attr source packetDropReasonIsInterfaceDown(packetDropped)
attr title "packet drops: interface down, packetBytes"
vector 143 TwoMasterClocksTreeGptpShowcase.tsnClock1.eth[0] packetDropNoCarrier:vector(packetBytes) ETV
attr interpolationmode none
attr recordingmode vector(packetBytes)
attr source packetDropReasonIsNoCarrier(packetDropped)
attr title "packet drops: no carrier, packetBytes"
vector 144 TwoMasterClocksTreeGptpShowcase.tsnClock1.ipv4.ip packetDropAddressResolutionFailed:vector(packetBytes) ETV
attr interpolationmode none
attr recordingmode vector(packetBytes)
attr source packetDropReasonIsAddressResolutionFailed(packetDropped)
attr title "packet drop: address resolution failed, packetBytes"
vector 145 TwoMasterClocksTreeGptpShowcase.tsnClock1.ipv4.ip packetDropHopLimitReached:vector(packetBytes) ETV
attr interpolationmode none
attr recordingmode vector(packetBytes)
attr source packetDropReasonIsHopLimitReached(packetDropped)
attr title "packet drop: hop limit reached, packetBytes"
vector 146 TwoMasterClocksTreeGptpShowcase.tsnClock1.ipv4.ip packetDropForwardingDisabled:vector(packetBytes) ETV
attr interpolationmode none
attr recordingmode vector(packetBytes)
attr source packetDropReasonIsForwardingDisabled(packetDropped)
attr title "packet drop: forwarding disabled, packetBytes"
vector 147 TwoMasterClocksTreeGptpShowcase.tsnClock1.ipv4.ip packetDropNoInterfaceFound:vector(packetBytes) ETV
attr interpolationmode none
attr recordingmode vector(packetBytes)
attr source packetDropReasonIsNoInterfaceFound(packetDropped)
attr title "packet drop: no interface found, packetBytes"
vector 148 TwoMasterClocksTreeGptpShowcase.tsnClock1.ipv4.ip packetDropNoRouteFound:vector(packetBytes) ETV
attr interpolationmode none
attr recordingmode vector(packetBytes)
attr source packetDropReasonIsNoRouteFound(packetDropped)
attr title "packet drop: no route found, packetBytes"
vector 149 TwoMasterClocksTreeGptpShowcase.tsnClock1.ipv4.ip packetDropUndefined:vector(packetBytes) ETV
attr interpolationmode none
attr recordingmode vector(packetBytes)
attr source packetDropReasonIsUndefined(packetDropped)
attr title "packet drop: undefined, packetBytes"
vector 150 TwoMasterClocksTreeGptpShowcase.tsnClock1.udp packetSent:vector(packetBytes) ETV
attr interpolationmode none
attr recordingmode vector(packetBytes)
attr source packetSent
attr title "packets sent, packetBytes"
vector 151 TwoMasterClocksTreeGptpShowcase.tsnClock1.udp packetReceived:vector(packetBytes) ETV
attr interpolationmode none
attr recordingmode vector(packetBytes)
attr source packetReceived
attr title "packets received, packetBytes"
vector 152 TwoMasterClocksTreeGptpShowcase.tsnClock1.udp passedUpPk:vector(count) ETV
attr interpolationmode none
attr recordingmode vector(count)
attr source packetSentToUpper
attr title "packets passed up, count"
vector 153 TwoMasterClocksTreeGptpShowcase.tsnClock1.udp droppedPkWrongPort:vector(count) ETV
attr interpolationmode none
attr recordingmode vector(count)
attr source packetDropReasonIsNoPortFound(packetDropped)
attr title "packets dropped (wrong port), count"
vector 154 TwoMasterClocksTreeGptpShowcase.tsnClock1.udp droppedPkBadChecksum:vector(count) ETV
attr interpolationmode none
attr recordingmode vector(count)
attr source packetDropReasonIsIncorrectlyReceived(packetDropped)
attr title "packets dropped (checksum error), count"
vector 155 TwoMasterClocksTreeGptpShowcase.tsnClock1.gptp localTime:vector ETV
attr interpolationmode linear
attr recordingmode vector
vector 156 TwoMasterClocksTreeGptpShowcase.tsnClock1.gptp timeDifference:vector ETV
attr interpolationmode linear
attr recordingmode vector
vector 157 TwoMasterClocksTreeGptpShowcase.tsnClock1.gptp rateRatio:vector ETV
attr interpolationmode sample-hold
attr recordingmode vector
vector 158 TwoMasterClocksTreeGptpShowcase.tsnClock1.gptp peerDelay:vector ETV
attr interpolationmode sample-hold
attr recordingmode vector
vector 159 TwoMasterClocksTreeGptpShowcase.tsnClock1.gptp packetDropNotAddressedToUs:vector(packetBytes) ETV
attr interpolationmode none
attr recordingmode vector(packetBytes)
attr source packetDropReasonIsNotAddressedToUs(packetDropped)
attr title "packet drop: not addressed to us, packetBytes"
vector 160 TwoMasterClocksTreeGptpShowcase.tsnClock2.clock.oscillator driftRateChanged:vector ETV
attr interpolationmode sample-hold
attr recordingmode vector
attr title "Oscillator drift rate"
attr unit ppm
vector 161 TwoMasterClocksTreeGptpShowcase.tsnClock2.clock timeChanged:vector ETV
attr interpolationmode linear
attr recordingmode vector
attr title "Clock time"
vector 162 TwoMasterClocksTreeGptpShowcase.tsnClock2.ethernet.macHeaderInserter incomingPacketLengths:vector ETV
attr interpolationmode none
attr recordingmode vector
attr source "packetLength(merge(packetPushedIn, packetPulledIn))"
attr title "incoming packet lengths"
attr unit b
vector 163 TwoMasterClocksTreeGptpShowcase.tsnClock2.ethernet.macHeaderInserter incomingDataRate:vector ETV
attr interpolationmode linear
attr recordingmode vector
attr source "throughput(merge(packetPushedIn, packetPulledIn))"
attr title "incoming data rate"
attr unit bps
vector 164 TwoMasterClocksTreeGptpShowcase.tsnClock2.ethernet.macHeaderInserter outgoingPacketLengths:vector ETV
attr interpolationmode none
attr recordingmode vector
attr source "packetLength(merge(packetPushedOut, packetPulledOut))"
attr title "outgoing packet lengths"
attr unit b
vector 165 TwoMasterClocksTreeGptpShowcase.tsnClock2.ethernet.macHeaderInserter outgoingDataRate:vector ETV
attr interpolationmode linear
attr recordingmode vector
attr source "throughput(merge(packetPushedOut, packetPulledOut))"
attr title "outgoing data rate"
attr unit bps
vector 166 TwoMasterClocksTreeGptpShowcase.tsnClock2.ethernet.macHeaderInserter flowIncomingPacketLengths:vector ETV
attr interpolationmode none
attr recordingmode vector
attr source "packetLength(demuxFlow(merge(packetPushedIn, packetPulledIn)))"
attr title "flow specific incoming packet lengths"
attr unit b
vector 167 TwoMasterClocksTreeGptpShowcase.tsnClock2.ethernet.macHeaderInserter flowIncomingDataRate:vector ETV
attr interpolationmode linear
attr recordingmode vector
attr source "throughput(demuxFlow(merge(packetPushedIn, packetPulledIn)))"
attr title "flow specific incoming data rate"
attr unit bps
vector 168 TwoMasterClocksTreeGptpShowcase.tsnClock2.ethernet.macHeaderInserter flowOutgoingPacketLengths:vector ETV
attr interpolationmode none
attr recordingmode vector
attr source "packetLength(demuxFlow(merge(packetPushedOut, packetPulledOut)))"
attr title "flow specific outgoing packet lengths"
attr unit b
vector 169 TwoMasterClocksTreeGptpShowcase.tsnClock2.ethernet.macHeaderInserter flowOutgoingDataRate:vector ETV
attr interpolationmode linear
attr recordingmode vector
attr source "throughput(demuxFlow(merge(packetPushedOut, packetPulledOut)))"
attr title "flow specific outgoing data rate"
attr unit bps
vector 170 TwoMasterClocksTreeGptpShowcase.tsnClock2.ethernet.paddingInserter incomingPacketLengths:vector ETV
attr interpolationmode none
attr recordingmode vector
attr source "packetLength(merge(packetPushedIn, packetPulledIn))"
attr title "incoming packet lengths"
attr unit b
vector 171 TwoMasterClocksTreeGptpShowcase.tsnClock2.ethernet.paddingInserter incomingDataRate:vector ETV
attr interpolationmode linear
attr recordingmode vector
attr source "throughput(merge(packetPushedIn, packetPulledIn))"
attr title "incoming data rate"
attr unit bps
vector 172 TwoMasterClocksTreeGptpShowcase.tsnClock2.ethernet.paddingInserter outgoingPacketLengths:vector ETV
attr interpolationmode none
attr recordingmode vector
attr source "packetLength(merge(packetPushedOut, packetPulledOut))"
attr title "outgoing packet lengths"
attr unit b
vector 173 TwoMasterClocksTreeGptpShowcase.tsnClock2.ethernet.paddingInserter outgoingDataRate:vector ETV
attr interpolationmode linear
attr recordingmode vector
attr source "throughput(merge(packetPushedOut, packetPulledOut))"
attr title "outgoing data rate"
attr unit bps
vector 174 TwoMasterClocksTreeGptpShowcase.tsnClock2.ethernet.paddingInserter flowIncomingPacketLengths:vector ETV
attr interpolationmode none
attr recordingmode vector
attr source "packetLength(demuxFlow(merge(packetPushedIn, packetPulledIn)))"
attr title "flow specific incoming packet lengths"
attr unit b
vector 175 TwoMasterClocksTreeGptpShowcase.tsnClock2.ethernet.paddingInserter flowIncomingDataRate:vector ETV
attr interpolationmode linear
attr recordingmode vector
attr source "throughput(demuxFlow(merge(packetPushedIn, packetPulledIn)))"
attr title "flow specific incoming data rate"
attr unit bps
vector 176 TwoMasterClocksTreeGptpShowcase.tsnClock2.ethernet.paddingInserter flowOutgoingPacketLengths:vector ETV
attr interpolationmode none
attr recordingmode vector
attr source "packetLength(demuxFlow(merge(packetPushedOut, packetPulledOut)))"
attr title "flow specific outgoing packet lengths"
attr unit b
vector 177 TwoMasterClocksTreeGptpShowcase.tsnClock2.ethernet.paddingInserter flowOutgoingDataRate:vector ETV
attr interpolationmode linear
attr recordingmode vector
attr source "throughput(demuxFlow(merge(packetPushedOut, packetPulledOut)))"
attr title "flow specific outgoing data rate"
attr unit bps
vector 178 TwoMasterClocksTreeGptpShowcase.tsnClock2.ethernet.fcsInserter incomingPacketLengths:vector ETV
attr interpolationmode none
attr recordingmode vector
attr source "packetLength(merge(packetPushedIn, packetPulledIn))"
attr title "incoming packet lengths"
attr unit b
vector 179 TwoMasterClocksTreeGptpShowcase.tsnClock2.ethernet.fcsInserter incomingDataRate:vector ETV
attr interpolationmode linear
attr recordingmode vector
attr source "throughput(merge(packetPushedIn, packetPulledIn))"
attr title "incoming data rate"
attr unit bps
vector 180 TwoMasterClocksTreeGptpShowcase.tsnClock2.ethernet.fcsInserter outgoingPacketLengths:vector ETV
attr interpolationmode none
attr recordingmode vector
attr source "packetLength(merge(packetPushedOut, packetPulledOut))"
attr title "outgoing packet lengths"
attr unit b
vector 181 TwoMasterClocksTreeGptpShowcase.tsnClock2.ethernet.fcsInserter outgoingDataRate:vector ETV
attr interpolationmode linear
attr recordingmode vector
attr source "throughput(merge(packetPushedOut, packetPulledOut))"
attr title "outgoing data rate"
attr unit bps
vector 182 TwoMasterClocksTreeGptpShowcase.tsnClock2.ethernet.fcsInserter flowIncomingPacketLengths:vector ETV
attr interpolationmode none
attr recordingmode vector
attr source "packetLength(demuxFlow(merge(packetPushedIn, packetPulledIn)))"
attr title "flow specific incoming packet lengths"
attr unit b
vector 183 TwoMasterClocksTreeGptpShowcase.tsnClock2.ethernet.fcsInserter flowIncomingDataRate:vector ETV
attr interpolationmode linear
attr recordingmode vector
attr source "throughput(demuxFlow(merge(packetPushedIn, packetPulledIn)))"
attr title "flow specific incoming data rate"
attr unit bps
vector 184 TwoMasterClocksTreeGptpShowcase.tsnClock2.ethernet.fcsInserter flowOutgoingPacketLengths:vector ETV
attr interpolationmode none
attr recordingmode vector
attr source "packetLength(demuxFlow(merge(packetPushedOut, packetPulledOut)))"
attr title "flow specific outgoing packet lengths"
attr unit b
vector 185 TwoMasterClocksTreeGptpShowcase.tsnClock2.ethernet.fcsInserter flowOutgoingDataRate:vector ETV
attr interpolationmode linear
attr recordingmode vector
attr source "throughput(demuxFlow(merge(packetPushedOut, packetPulledOut)))"
attr title "flow specific outgoing data rate"
attr unit bps
vector 186 TwoMasterClocksTreeGptpShowcase.tsnClock2.ethernet.macHeaderChecker incomingPacketLengths:vector ETV
attr interpolationmode none
attr recordingmode vector
attr source "packetLength(merge(packetPushedIn, packetPulledIn))"
attr title "incoming packet lengths"
attr unit b
vector 187 TwoMasterClocksTreeGptpShowcase.tsnClock2.ethernet.macHeaderChecker incomingDataRate:vector ETV
attr interpolationmode linear
attr recordingmode vector
attr source "throughput(merge(packetPushedIn, packetPulledIn))"
attr title "incoming data rate"
attr unit bps
vector 188 TwoMasterClocksTreeGptpShowcase.tsnClock2.ethernet.macHeaderChecker outgoingPacketLengths:vector ETV
attr interpolationmode none
attr recordingmode vector
attr source "packetLength(merge(packetPushedOut, packetPulledOut))"
attr title "outgoing packet lengths"
attr unit b
vector 189 TwoMasterClocksTreeGptpShowcase.tsnClock2.ethernet.macHeaderChecker outgoingDataRate:vector ETV
attr interpolationmode linear
attr recordingmode vector
attr source "throughput(merge(packetPushedOut, packetPulledOut))"
attr title "outgoing data rate"
attr unit bps
vector 190 TwoMasterClocksTreeGptpShowcase.tsnClock2.ethernet.macHeaderChecker droppedPacketLengths:vector ETV
attr interpolationmode none
attr recordingmode vector
attr source packetLength(packetDropped)
attr title "dropped packet lengths"
attr unit b
vector 191 TwoMasterClocksTreeGptpShowcase.tsnClock2.ethernet.macHeaderChecker droppedDataRate:vector ETV
attr interpolationmode linear
attr recordingmode vector
attr source throughput(packetDropped)
attr title "dropped data rate"
attr unit bps
vector 192 TwoMasterClocksTreeGptpShowcase.tsnClock2.ethernet.macHeaderChecker flowIncomingPacketLengths:vector ETV
attr interpolationmode none
attr recordingmode vector
attr source "packetLength(demuxFlow(merge(packetPushedIn, packetPulledIn)))"
attr title "flow specific incoming packet lengths"
attr unit b
vector 193 TwoMasterClocksTreeGptpShowcase.tsnClock2.ethernet.macHeaderChecker flowIncomingDataRate:vector ETV
attr interpolationmode linear
attr recordingmode vector
attr source "throughput(demuxFlow(merge(packetPushedIn, packetPulledIn)))"
attr title "flow specific incoming data rate"
attr unit bps
vector 194 TwoMasterClocksTreeGptpShowcase.tsnClock2.ethernet.macHeaderChecker flowOutgoingPacketLengths:vector ETV
attr interpolationmode none
attr recordingmode vector
attr source "packetLength(demuxFlow(merge(packetPushedOut, packetPulledOut)))"
attr title "flow specific outgoing packet lengths"
attr unit b
vector 195 TwoMasterClocksTreeGptpShowcase.tsnClock2.ethernet.macHeaderChecker flowOutgoingDataRate:vector ETV
attr interpolationmode linear
attr recordingmode vector
attr source "throughput(demuxFlow(merge(packetPushedOut, packetPulledOut)))"
attr title "flow specific outgoing data rate"
attr unit bps
vector 196 TwoMasterClocksTreeGptpShowcase.tsnClock2.ethernet.macHeaderChecker flowDroppedPacketLengths:vector ETV
attr interpolationmode none
attr recordingmode vector
attr source packetLength(demuxFlow(packetDropped))
attr title "flow specific dropped packet lengths"
attr unit b
vector 197 TwoMasterClocksTreeGptpShowcase.tsnClock2.ethernet.macHeaderChecker flowDroppedDataRate:vector ETV
attr interpolationmode linear
attr recordingmode vector
attr source throughput(demuxFlow(packetDropped))
attr title "flow specific dropped data rate"
attr unit bps
vector 198 TwoMasterClocksTreeGptpShowcase.tsnClock2.ethernet.fcsChecker incomingPacketLengths:vector ETV
attr interpolationmode none
attr recordingmode vector
attr source "packetLength(merge(packetPushedIn, packetPulledIn))"
attr title "incoming packet lengths"
attr unit b
vector 199 TwoMasterClocksTreeGptpShowcase.tsnClock2.ethernet.fcsChecker incomingDataRate:vector ETV
attr interpolationmode linear
attr recordingmode vector
attr source "throughput(merge(packetPushedIn, packetPulledIn))"
attr title "incoming data rate"
attr unit bps
vector 200 TwoMasterClocksTreeGptpShowcase.tsnClock2.ethernet.fcsChecker outgoingPacketLengths:vector ETV
attr interpolationmode none
attr recordingmode vector
attr source "packetLength(merge(packetPushedOut, packetPulledOut))"
attr title "outgoing packet lengths"
attr unit b
vector 201 TwoMasterClocksTreeGptpShowcase.tsnClock2.ethernet.fcsChecker outgoingDataRate:vector ETV
attr interpolationmode linear
attr recordingmode vector
attr source "throughput(merge(packetPushedOut, packetPulledOut))"
attr title "outgoing data rate"
attr unit bps
vector 202 TwoMasterClocksTreeGptpShowcase.tsnClock2.ethernet.fcsChecker droppedPacketLengths:vector ETV
attr interpolationmode none
attr recordingmode vector
attr source packetLength(packetDropped)
attr title "dropped packet lengths"
attr unit b
vector 203 TwoMasterClocksTreeGptpShowcase.tsnClock2.ethernet.fcsChecker droppedDataRate:vector ETV
attr interpolationmode linear
attr recordingmode vector
attr source throughput(packetDropped)
attr title "dropped data rate"
attr unit bps
vector 204 TwoMasterClocksTreeGptpShowcase.tsnClock2.ethernet.fcsChecker flowIncomingPacketLengths:vector ETV
attr interpolationmode none
attr recordingmode vector
attr source "packetLength(demuxFlow(merge(packetPushedIn, packetPulledIn)))"
attr title "flow specific incoming packet lengths"
attr unit b
vector 205 TwoMasterClocksTreeGptpShowcase.tsnClock2.ethernet.fcsChecker flowIncomingDataRate:vector ETV
attr interpolationmode linear
attr recordingmode vector
attr source "throughput(demuxFlow(merge(packetPushedIn, packetPulledIn)))"
attr title "flow specific incoming data rate"
attr unit bps
vector 206 TwoMasterClocksTreeGptpShowcase.tsnClock2.ethernet.fcsChecker flowOutgoingPacketLengths:vector ETV
attr interpolationmode none
attr recordingmode vector
attr source "packetLength(demuxFlow(merge(packetPushedOut, packetPulledOut)))"
attr title "flow specific outgoing packet lengths"
attr unit b
vector 207 TwoMasterClocksTreeGptpShowcase.tsnClock2.ethernet.fcsChecker flowOutgoingDataRate:vector ETV
attr interpolationmode linear
attr recordingmode vector
attr source "throughput(demuxFlow(merge(packetPushedOut, packetPulledOut)))"
attr title "flow specific outgoing data rate"
attr unit bps
vector 208 TwoMasterClocksTreeGptpShowcase.tsnClock2.ethernet.fcsChecker flowDroppedPacketLengths:vector ETV
attr interpolationmode none
attr recordingmode vector
attr source packetLength(demuxFlow(packetDropped))
attr title "flow specific dropped packet lengths"
attr unit b
vector 209 TwoMasterClocksTreeGptpShowcase.tsnClock2.ethernet.fcsChecker flowDroppedDataRate:vector ETV
attr interpolationmode linear
attr recordingmode vector
attr source throughput(demuxFlow(packetDropped))
attr title "flow specific dropped data rate"
attr unit bps
vector 210 TwoMasterClocksTreeGptpShowcase.tsnClock2.lo[0].lo rcvdPkFromHl:vector(packetBytes) ETV
attr interpolationmode none
attr recordingmode vector(packetBytes)
attr source packetReceivedFromUpper
attr title "packets received from higher layer, packetBytes"
vector 211 TwoMasterClocksTreeGptpShowcase.tsnClock2.lo[0].lo passedUpPk:vector(packetBytes) ETV
attr interpolationmode none
attr recordingmode vector(packetBytes)
attr source packetSentToUpper
attr title "packets passed to higher layer, packetBytes"
vector 212 TwoMasterClocksTreeGptpShowcase.tsnClock2.lo[0] packetDropInterfaceDown:vector(packetBytes) ETV
attr interpolationmode none
attr recordingmode vector(packetBytes)
attr source packetDropReasonIsInterfaceDown(packetDropped)
attr title "packet drops: interface down, packetBytes"
vector 213 TwoMasterClocksTreeGptpShowcase.tsnClock2.lo[0] packetDropNoCarrier:vector(packetBytes) ETV
attr interpolationmode none
attr recordingmode vector(packetBytes)
attr source packetDropReasonIsNoCarrier(packetDropped)
attr title "packet drops: no carrier, packetBytes"
vector 214 TwoMasterClocksTreeGptpShowcase.tsnClock2.eth[0].macLayer.queue queueLength:vector ETV
attr autoWarmupFilter false
attr interpolationmode sample-hold
attr recordingmode vector
attr source "warmup(atomic(constant0(packetPushEnded) + count(packetPushStarted) - count(packetPulled) - count(packetRemoved) - count(packetDropped)))"
attr title "queue length"
attr unit pk
vector 215 TwoMasterClocksTreeGptpShowcase.tsnClock2.eth[0].macLayer.queue queueBitLength:vector ETV
attr autoWarmupFilter false
attr interpolationmode sample-hold
attr recordingmode vector
attr source "warmup(atomic(constant0(packetPushEnded) + sum(packetLength(packetPushStarted)) - sum(packetLength(packetPulled)) - sum(packetLength(packetRemoved)) - sum(packetLength(packetDropped))))"
attr title "queue bit length"
attr unit b
vector 216 TwoMasterClocksTreeGptpShowcase.tsnClock2.eth[0].macLayer.queue queueingTime:vector ETV
attr interpolationmode none
attr recordingmode vector
attr source queueingTime(packetPulled)
attr title "queueing times"
attr unit s
vector 217 TwoMasterClocksTreeGptpShowcase.tsnClock2.eth[0].macLayer.queue incomingPacketLengths:vector ETV
attr interpolationmode none
attr recordingmode vector
attr source packetLength(packetPushStarted)
attr title "incoming packet lengths"
attr unit b
vector 218 TwoMasterClocksTreeGptpShowcase.tsnClock2.eth[0].macLayer.queue incomingDataRate:vector ETV
attr interpolationmode linear
attr recordingmode vector
attr source throughput(packetPushStarted)
attr title "incoming datarate"
attr unit bps
vector 219 TwoMasterClocksTreeGptpShowcase.tsnClock2.eth[0].macLayer.queue outgoingPacketLengths:vector ETV
attr interpolationmode none
attr recordingmode vector
attr source packetLength(packetPulled)
attr title "outgoing packet lengths"
attr unit b
vector 220 TwoMasterClocksTreeGptpShowcase.tsnClock2.eth[0].macLayer.queue outgoingDataRate:vector ETV
attr interpolationmode linear
attr recordingmode vector
attr source throughput(packetPulled)
attr title "outgoing datarate"
attr unit bps
vector 221 TwoMasterClocksTreeGptpShowcase.tsnClock2.eth[0].macLayer.queue droppedPacketLengthsQueueOverflow:vector ETV
attr interpolationmode none
attr recordingmode vector
attr source packetLength(packetDropReasonIsQueueOverflow(packetDropped))
attr title "dropped packet lengths: queue overflow"
attr unit b
vector 222 TwoMasterClocksTreeGptpShowcase.tsnClock2.eth[0].macLayer.queue flowQueueingTime:vector ETV
attr interpolationmode none
attr recordingmode vector
attr source queueingTime(demuxFlow(packetPulled))
attr title "flow queueing times"
attr unit s
vector 223 TwoMasterClocksTreeGptpShowcase.tsnClock2.eth[0].macLayer.queue flowIncomingDataRate:vector ETV
attr interpolationmode linear
attr recordingmode vector
attr source throughput(flowPacketLength(demuxFlow(packetPushStarted)))
attr title "flow specific incoming data rate"
attr unit bps
vector 224 TwoMasterClocksTreeGptpShowcase.tsnClock2.eth[0].macLayer.queue flowOutgoingDataRate:vector ETV
attr interpolationmode linear
attr recordingmode vector
attr source throughput(flowPacketLength(demuxFlow(packetPulled)))
attr title "flow specific outgoing data rate"
attr unit bps
vector 225 TwoMasterClocksTreeGptpShowcase.tsnClock2.eth[0].macLayer.server incomingPacketLengths:vector ETV
attr interpolationmode none
attr recordingmode vector
attr source packetLength(packetPulled)
attr title "incoming packet lengths"
attr unit b
vector 226 TwoMasterClocksTreeGptpShowcase.tsnClock2.eth[0].macLayer.server incomingDataRate:vector ETV
attr interpolationmode linear
attr recordingmode vector
attr source throughput(packetPulled)
attr title "incoming datarate"
attr unit bps
vector 227 TwoMasterClocksTreeGptpShowcase.tsnClock2.eth[0].macLayer.server outgoingPacketLengths:vector ETV
attr interpolationmode none
attr recordingmode vector
attr source packetLength(packetPushed)
attr title "outgoing packet lengths"
attr unit b
vector 228 TwoMasterClocksTreeGptpShowcase.tsnClock2.eth[0].macLayer.server outgoingDataRate:vector ETV
attr interpolationmode linear
attr recordingmode vector
attr source throughput(packetPushed)
attr title "outgoing datarate"
attr unit bps
vector 229 TwoMasterClocksTreeGptpShowcase.tsnClock2.eth[0].macLayer.outboundEmitter incomingPacketLengths:vector ETV
attr interpolationmode none
attr recordingmode vector
attr source "packetLength(merge(packetPushedIn, packetPulledIn))"
attr title "incoming packet lengths"
attr unit b
vector 230 TwoMasterClocksTreeGptpShowcase.tsnClock2.eth[0].macLayer.outboundEmitter incomingDataRate:vector ETV
attr interpolationmode linear
attr recordingmode vector
attr source "throughput(merge(packetPushedIn, packetPulledIn))"
attr title "incoming data rate"
attr unit bps
vector 231 TwoMasterClocksTreeGptpShowcase.tsnClock2.eth[0].macLayer.outboundEmitter outgoingPacketLengths:vector ETV
attr interpolationmode none
attr recordingmode vector
attr source "packetLength(merge(packetPushedOut, packetPulledOut))"
attr title "outgoing packet lengths"
attr unit b
vector 232 TwoMasterClocksTreeGptpShowcase.tsnClock2.eth[0].macLayer.outboundEmitter outgoingDataRate:vector ETV
attr interpolationmode linear
attr recordingmode vector
attr source "throughput(merge(packetPushedOut, packetPulledOut))"
attr title "outgoing data rate"
attr unit bps
vector 233 TwoMasterClocksTreeGptpShowcase.tsnClock2.eth[0].macLayer.outboundEmitter flowIncomingPacketLengths:vector ETV
attr interpolationmode none
attr recordingmode vector
attr source "packetLength(demuxFlow(merge(packetPushedIn, packetPulledIn)))"
attr title "flow specific incoming packet lengths"
attr unit b
vector 234 TwoMasterClocksTreeGptpShowcase.tsnClock2.eth[0].macLayer.outboundEmitter flowIncomingDataRate:vector ETV
attr interpolationmode linear
attr recordingmode vector
attr source "throughput(demuxFlow(merge(packetPushedIn, packetPulledIn)))"
attr title "flow specific incoming data rate"
attr unit bps
vector 235 TwoMasterClocksTreeGptpShowcase.tsnClock2.eth[0].macLayer.outboundEmitter flowOutgoingPacketLengths:vector ETV
attr interpolationmode none
attr recordingmode vector
attr source "packetLength(demuxFlow(merge(packetPushedOut, packetPulledOut)))"
attr title "flow specific outgoing packet lengths"
attr unit b
vector 236 TwoMasterClocksTreeGptpShowcase.tsnClock2.eth[0].macLayer.outboundEmitter flowOutgoingDataRate:vector ETV
attr interpolationmode linear
attr recordingmode vector
attr source "throughput(demuxFlow(merge(packetPushedOut, packetPulledOut)))"
attr title "flow specific outgoing data rate"
attr unit bps
vector 237 TwoMasterClocksTreeGptpShowcase.tsnClock2.eth[0].macLayer.fcsChecker incomingPacketLengths:vector ETV
attr interpolationmode none
attr recordingmode vector
attr source "packetLength(merge(packetPushedIn, packetPulledIn))"
attr title "incoming packet lengths"
attr unit b
vector 238 TwoMasterClocksTreeGptpShowcase.tsnClock2.eth[0].macLayer.fcsChecker incomingDataRate:vector ETV
attr interpolationmode linear
attr recordingmode vector
attr source "throughput(merge(packetPushedIn, packetPulledIn))"
attr title "incoming data rate"
attr unit bps
vector 239 TwoMasterClocksTreeGptpShowcase.tsnClock2.eth[0].macLayer.fcsChecker outgoingPacketLengths:vector ETV
attr interpolationmode none
attr recordingmode vector
attr source "packetLength(merge(packetPushedOut, packetPulledOut))"
attr title "outgoing packet lengths"
attr unit b
vector 240 TwoMasterClocksTreeGptpShowcase.tsnClock2.eth[0].macLayer.fcsChecker outgoingDataRate:vector ETV
attr interpolationmode linear
attr recordingmode vector
attr source "throughput(merge(packetPushedOut, packetPulledOut))"
attr title "outgoing data rate"
attr unit bps
vector 241 TwoMasterClocksTreeGptpShowcase.tsnClock2.eth[0].macLayer.fcsChecker droppedPacketLengths:vector ETV
attr interpolationmode none
attr recordingmode vector
attr source packetLength(packetDropped)
attr title "dropped packet lengths"
attr unit b
vector 242 TwoMasterClocksTreeGptpShowcase.tsnClock2.eth[0].macLayer.fcsChecker droppedDataRate:vector ETV
attr interpolationmode linear
attr recordingmode vector
attr source throughput(packetDropped)
attr title "dropped data rate"
attr unit bps
vector 243 TwoMasterClocksTreeGptpShowcase.tsnClock2.eth[0].macLayer.fcsChecker flowIncomingPacketLengths:vector ETV
attr interpolationmode none
attr recordingmode vector
attr source "packetLength(demuxFlow(merge(packetPushedIn, packetPulledIn)))"
attr title "flow specific incoming packet lengths"
attr unit b
vector 244 TwoMasterClocksTreeGptpShowcase.tsnClock2.eth[0].macLayer.fcsChecker flowIncomingDataRate:vector ETV
attr interpolationmode linear
attr recordingmode vector
attr source "throughput(demuxFlow(merge(packetPushedIn, packetPulledIn)))"
attr title "flow specific incoming data rate"
attr unit bps
vector 245 TwoMasterClocksTreeGptpShowcase.tsnClock2.eth[0].macLayer.fcsChecker flowOutgoingPacketLengths:vector ETV
attr interpolationmode none
attr recordingmode vector
attr source "packetLength(demuxFlow(merge(packetPushedOut, packetPulledOut)))"
attr title "flow specific outgoing packet lengths"
attr unit b
vector 246 TwoMasterClocksTreeGptpShowcase.tsnClock2.eth[0].macLayer.fcsChecker flowOutgoingDataRate:vector ETV
attr interpolationmode linear
attr recordingmode vector
attr source "throughput(demuxFlow(merge(packetPushedOut, packetPulledOut)))"
attr title "flow specific outgoing data rate"
attr unit bps
vector 247 TwoMasterClocksTreeGptpShowcase.tsnClock2.eth[0].macLayer.fcsChecker flowDroppedPacketLengths:vector ETV
attr interpolationmode none
attr recordingmode vector
attr source packetLength(demuxFlow(packetDropped))
attr title "flow specific dropped packet lengths"
attr unit b
vector 248 TwoMasterClocksTreeGptpShowcase.tsnClock2.eth[0].macLayer.fcsChecker flowDroppedDataRate:vector ETV
attr interpolationmode linear
attr recordingmode vector
attr source throughput(demuxFlow(packetDropped))
attr title "flow specific dropped data rate"
attr unit bps
vector 249 TwoMasterClocksTreeGptpShowcase.tsnClock2.eth[0].macLayer.inboundEmitter incomingPacketLengths:vector ETV
attr interpolationmode none
attr recordingmode vector
attr source "packetLength(merge(packetPushedIn, packetPulledIn))"
attr title "incoming packet lengths"
attr unit b
vector 250 TwoMasterClocksTreeGptpShowcase.tsnClock2.eth[0].macLayer.inboundEmitter incomingDataRate:vector ETV
attr interpolationmode linear
attr recordingmode vector
attr source "throughput(merge(packetPushedIn, packetPulledIn))"
attr title "incoming data rate"
attr unit bps
vector 251 TwoMasterClocksTreeGptpShowcase.tsnClock2.eth[0].macLayer.inboundEmitter outgoingPacketLengths:vector ETV
attr interpolationmode none
attr recordingmode vector
attr source "packetLength(merge(packetPushedOut, packetPulledOut))"
attr title "outgoing packet lengths"
attr unit b
vector 252 TwoMasterClocksTreeGptpShowcase.tsnClock2.eth[0].macLayer.inboundEmitter outgoingDataRate:vector ETV
attr interpolationmode linear
attr recordingmode vector
attr source "throughput(merge(packetPushedOut, packetPulledOut))"
attr title "outgoing data rate"
attr unit bps
vector 253 TwoMasterClocksTreeGptpShowcase.tsnClock2.eth[0].macLayer.inboundEmitter flowIncomingPacketLengths:vector ETV
attr interpolationmode none
attr recordingmode vector
attr source "packetLength(demuxFlow(merge(packetPushedIn, packetPulledIn)))"
attr title "flow specific incoming packet lengths"
attr unit b
vector 254 TwoMasterClocksTreeGptpShowcase.tsnClock2.eth[0].macLayer.inboundEmitter flowIncomingDataRate:vector ETV
attr interpolationmode linear
attr recordingmode vector
attr source "throughput(demuxFlow(merge(packetPushedIn, packetPulledIn)))"
attr title "flow specific incoming data rate"
attr unit bps
vector 255 TwoMasterClocksTreeGptpShowcase.tsnClock2.eth[0].macLayer.inboundEmitter flowOutgoingPacketLengths:vector ETV
attr interpolationmode none
attr recordingmode vector
attr source "packetLength(demuxFlow(merge(packetPushedOut, packetPulledOut)))"
attr title "flow specific outgoing packet lengths"
attr unit b
vector 256 TwoMasterClocksTreeGptpShowcase.tsnClock2.eth[0].macLayer.inboundEmitter flowOutgoingDataRate:vector ETV
attr interpolationmode linear
attr recordingmode vector
attr source "throughput(demuxFlow(merge(packetPushedOut, packetPulledOut)))"
attr title "flow specific outgoing data rate"
attr unit bps
vector 257 TwoMasterClocksTreeGptpShowcase.tsnClock2.eth[0].phyLayer.phyHeaderInserter incomingPacketLengths:vector ETV
attr interpolationmode none
attr recordingmode vector
attr source "packetLength(merge(packetPushedIn, packetPulledIn))"
attr title "incoming packet lengths"
attr unit b
vector 258 TwoMasterClocksTreeGptpShowcase.tsnClock2.eth[0].phyLayer.phyHeaderInserter incomingDataRate:vector ETV
attr interpolationmode linear
attr recordingmode vector
attr source "throughput(merge(packetPushedIn, packetPulledIn))"
attr title "incoming data rate"
attr unit bps
vector 259 TwoMasterClocksTreeGptpShowcase.tsnClock2.eth[0].phyLayer.phyHeaderInserter outgoingPacketLengths:vector ETV
attr interpolationmode none
attr recordingmode vector
attr source "packetLength(merge(packetPushedOut, packetPulledOut))"
attr title "outgoing packet lengths"
attr unit b
vector 260 TwoMasterClocksTreeGptpShowcase.tsnClock2.eth[0].phyLayer.phyHeaderInserter outgoingDataRate:vector ETV
attr interpolationmode linear
attr recordingmode vector
attr source "throughput(merge(packetPushedOut, packetPulledOut))"
attr title "outgoing data rate"
attr unit bps
vector 261 TwoMasterClocksTreeGptpShowcase.tsnClock2.eth[0].phyLayer.phyHeaderInserter flowIncomingPacketLengths:vector ETV
attr interpolationmode none
attr recordingmode vector
attr source "packetLength(demuxFlow(merge(packetPushedIn, packetPulledIn)))"
attr title "flow specific incoming packet lengths"
attr unit b
vector 262 TwoMasterClocksTreeGptpShowcase.tsnClock2.eth[0].phyLayer.phyHeaderInserter flowIncomingDataRate:vector ETV
attr interpolationmode linear
attr recordingmode vector
attr source "throughput(demuxFlow(merge(packetPushedIn, packetPulledIn)))"
attr title "flow specific incoming data rate"
attr unit bps
vector 263 TwoMasterClocksTreeGptpShowcase.tsnClock2.eth[0].phyLayer.phyHeaderInserter flowOutgoingPacketLengths:vector ETV
attr interpolationmode none
attr recordingmode vector
attr source "packetLength(demuxFlow(merge(packetPushedOut, packetPulledOut)))"
attr title "flow specific outgoing packet lengths"
attr unit b
[...]
1344	820078 903 173 1728 0.000120892693 0.875043829857 32 480 720 18976 11666944
1345	820981 151 386 1625 0.1 0.8 8 0 24000 165760 3929497600
1347	821132 158 1768 1768 0.1 1 10 0 0 0 0
1358	821290 155 0 82 0 0.000107352842 9 0 1 2 2
1359	821445 159 0 82 0 0.000107352842 9 0 576 1152 663552
1360	821604 61 17 82 0.000099992842 0.000107352842 2 0 7.354897e-06 7.354897e-06 5.4094509880609e-11
1361	821665 54 16 34 0.000099992842 0.000099997945 2 576 576 1152 663552
1362	821719 162 1768 1768 0.1 1 10 0 11520 11520 132710400
1363	821881 54 17 82 0.000099992842 0.000107352842 2 576 576 1152 663552
1364	821935 162 1768 1768 0.1 1 10 0 11520 11520 132710400
1369	822097 54 17 82 0.000099992842 0.000107352842 2 576 576 1152 663552
1370	822151 162 1768 1768 0.1 1 10 0 11520 11520 132710400
1371	822313 54 17 82 0.000099992842 0.000107352842 2 576 576 1152 663552
1372	822367 162 1768 1768 0.1 1 10 0 11520 11520 132710400
1373	822529 54 17 82 0.000099992842 0.000107352842 2 576 576 1152 663552
1375	822583 54 17 82 0.000099992842 0.000107352842 2 576 576 1152 663552
1381	822637 903 173 1728 0.000120892693 0.875043829857 32 512 752 20000 12914176
1382	823540 151 386 1625 0.1 0.8 8 0 25280 174720 4365312000
1383	823691 903 173 1728 0.000120892693 0.875043829857 32 512 752 20000 12914176
1384	824594 151 386 1625 0.1 0.8 8 0 25280 174720 4365312000
1386	824745 158 1768 1768 0.1 1 10 0 0 0 0
1393	824903 903 173 1728 0.000120892693 0.875043829857 32 512 752 20000 12914176
1394	825806 151 386 1625 0.1 0.8 8 0 25280 174720 4365312000
1395	825957 903 173 1728 0.000120892693 0.875043829857 32 512 752 20000 12914176
1396	826860 151 386 1625 0.1 0.8 8 0 25280 174720 4365312000
1401	827011 54 17 82 0.000099992842 0.000107352842 2 576 576 1152 663552
1403	827065 54 17 82 0.000099992842 0.000107352842 2 640 640 1280 819200
1409	827119 123 0 138 0 0.000114712842 6 0 1 2 2
1410	827242 54 17 82 0.000099992842 0.000107352842 2 640 640 1280 819200
1412	827296 54 17 82 0.000099992842 0.000107352842 2 640 640 1280 819200
1418	827350 122 0 99 0 0.000113752842 6 0 1 2 2
1419	827472 162 1768 1768 0.1 1 10 0 12800 12800 163840000
1421	827634 62 54 99 0.000106392842 0.000113752842 2 6.4e-06 6.4e-06 1.28e-05 8.192e-11
1423	827696 903 173 1728 0.000120892693 0.875043829857 32 576 816 22048 15605248
1424	828599 151 386 1625 0.1 0.8 8 0 27840 192640 5305753600
1425	828750 903 173 1728 0.000120892693 0.875043829857 32 512 752 20000 12914176
1426	829653 151 386 1625 0.1 0.8 8 0 25280 174720 4365312000
1428	829804 158 1768 1768 0.1 1 10 0 0 0 0
1435	829962 903 173 1728 0.000120892693 0.875043829857 32 576 816 22048 15605248
1436	830865 151 386 1625 0.1 0.8 8 0 27840 192640 5305753600
1437	831016 903 173 1728 0.000120892693 0.875043829857 32 576 816 22048 15605248
1438	831919 151 386 1625 0.1 0.8 8 0 27840 192640 5305753600
1443	832070 185 386 1768 0.1 1 10 0 27840 220480 6080819200
1444	832255 1059 173 1728 0.000120892693 0.875043829857 32 5.76e-06 8.16e-06 0.00022048 1.5605248e-09
1456	833314 11 0 0 0 0 1 0 0 0 0
1457	833325 11 0 0 0 0 1 0 0 0 0
1458	833336 11 0 0 0 0 1 0 0 0 0
1459	833347 275 425 1662 0.12502967702 0.875027989857 7 0.125029860531 0.875029860194 3.500209022358 2.1877090282242
1460	833622 517 425 1662 0.12502967702 0.875027989857 14 1.83511e-07 2.752588e-06 2.2975382e-05 4.5520967962006e-11
1461	834139 271 425 1662 0.12502967702 0.875027989857 7 0.9999819779408 1.0000012114175 6.9999784618418 6.9999569240214
1462	834410 35 299 299 0.000142972693 0.000142972693 1 5.0119e-08 5.0119e-08 5.0119e-08 2.511914161e-15
1464	834445 274 501 1731 0.12504551702 0.875043829857 7 0.125045383879 0.87504608708 3.500320184718 2.1878212452605
1465	834719 518 501 1731 0.12504551702 0.875043829857 14 -1.33141e-07 8.951899e-06 3.6670787e-05 2.0044684956759e-10
1466	835237 271 501 1731 0.12504551702 0.875043829857 7 0.99993096696732 1.0000052908339 6.9999256911421 6.9998513871592
1467	835508 35 231 231 0.000128252693 0.000128252693 1 5.0386e-08 5.0386e-08 5.0386e-08 2.538748996e-15
1471	835543 903 173 1728 0.000120892693 0.875043829857 32 368 608 15392 7817728
1472	836446 185 386 1768 0.1 1 10 0 19520 153920 2965811200
1474	836631 584 0 1768 0 1 16 0 1.000001747004 8.000421973973 5.3754230127633
1476	837215 587 0 1768 0 1 16 0 1.000001916735 8.000660125968 5.3756541499486
1477	837802 584 0 1768 0 1 16 0 1.000001747004 8.000421973973 5.3754230127633
1478	838386 54 19 43 0.000099993056 0.000099999103 2 432 432 864 373248
1480	838440 54 19 43 0.000099993056 0.000099999103 2 544 544 1088 591872
1486	838494 54 19 43 0.000099993056 0.000099999103 2 544 544 1088 591872
1488	838548 54 19 43 0.000099993056 0.000099999103 2 544 544 1088 591872
1494	838602 54 19 43 0.000099993056 0.000099999103 2 544 544 1088 591872
1496	838656 54 19 43 0.000099993056 0.000099999103 2 576 576 1152 663552
1502	838710 903 175 1729 0.000120892907 0.875043829857 32 480 720 18976 11666944
1503	839613 151 387 1626 0.1 0.8 8 0 24000 165760 3929497600
1504	839764 903 175 1729 0.000120892907 0.875043829857 32 368 608 15392 7817728
1505	840667 151 387 1626 0.1 0.8 8 0 19520 134400 2584780800
1507	840818 158 1768 1768 0.1 1 10 0 0 0 0
1514	840976 903 175 1729 0.000120892907 0.875043829857 32 512 752 20000 12914176
1515	841879 151 387 1626 0.1 0.8 8 0 25280 174720 4365312000
1516	842030 903 175 1729 0.000120892907 0.875043829857 32 480 720 18976 11666944
1517	842933 151 387 1626 0.1 0.8 8 0 24000 165760 3929497600
1519	843084 158 1768 1768 0.1 1 10 0 0 0 0
1530	843242 155 0 84 0 0.000107353056 9 0 1 2 2
1531	843397 159 0 84 0 0.000107353056 9 0 576 1152 663552
1532	843556 61 20 84 0.000099993056 0.000107353056 2 0 7.353953e-06 7.353953e-06 5.4080624726209e-11
1533	843617 54 19 43 0.000099993056 0.000099999103 2 576 576 1152 663552
1534	843671 162 1768 1768 0.1 1 10 0 11520 11520 132710400
1535	843833 54 20 84 0.000099993056 0.000107353056 2 576 576 1152 663552
1536	843887 162 1768 1768 0.1 1 10 0 11520 11520 132710400
1541	844049 54 20 84 0.000099993056 0.000107353056 2 576 576 1152 663552
1542	844103 162 1768 1768 0.1 1 10 0 11520 11520 132710400
1543	844265 54 20 84 0.000099993056 0.000107353056 2 576 576 1152 663552
1544	844319 162 1768 1768 0.1 1 10 0 11520 11520 132710400
1545	844481 54 20 84 0.000099993056 0.000107353056 2 576 576 1152 663552
1547	844535 54 20 84 0.000099993056 0.000107353056 2 576 576 1152 663552
1553	844589 903 175 1729 0.000120892907 0.875043829857 32 512 752 20000 12914176
1554	845492 151 387 1626 0.1 0.8 8 0 25280 174720 4365312000
1555	845643 903 175 1729 0.000120892907 0.875043829857 32 512 752 20000 12914176
1556	846546 151 387 1626 0.1 0.8 8 0 25280 174720 4365312000
1558	846697 158 1768 1768 0.1 1 10 0 0 0 0
1565	846855 903 175 1729 0.000120892907 0.875043829857 32 512 752 20000 12914176
1566	847758 151 387 1626 0.1 0.8 8 0 25280 174720 4365312000
1567	847909 903 175 1729 0.000120892907 0.875043829857 32 512 752 20000 12914176
1568	848812 151 387 1626 0.1 0.8 8 0 25280 174720 4365312000
1573	848963 54 20 84 0.000099993056 0.000107353056 2 576 576 1152 663552
1575	849017 54 20 84 0.000099993056 0.000107353056 2 640 640 1280 819200
1581	849071 124 0 140 0 0.000114713056 6 0 1 2 2
1582	849195 54 20 84 0.000099993056 0.000107353056 2 640 640 1280 819200
1584	849249 54 20 84 0.000099993056 0.000107353056 2 640 640 1280 819200
1590	849303 123 0 100 0 0.000113753056 6 0 1 2 2
1591	849426 162 1768 1768 0.1 1 10 0 12800 12800 163840000
1593	849588 63 55 100 0.000106393056 0.000113753056 2 6.4e-06 6.4e-06 1.28e-05 8.192e-11
1595	849651 903 175 1729 0.000120892907 0.875043829857 32 576 816 22048 15605248
1596	850554 151 387 1626 0.1 0.8 8 0 27840 192640 5305753600
1597	850705 903 175 1729 0.000120892907 0.875043829857 32 512 752 20000 12914176
1598	851608 151 387 1626 0.1 0.8 8 0 25280 174720 4365312000
1600	851759 158 1768 1768 0.1 1 10 0 0 0 0
1607	851917 903 175 1729 0.000120892907 0.875043829857 32 576 816 22048 15605248
1608	852820 151 387 1626 0.1 0.8 8 0 27840 192640 5305753600
1609	852971 903 175 1729 0.000120892907 0.875043829857 32 576 816 22048 15605248
1610	853874 151 387 1626 0.1 0.8 8 0 27840 192640 5305753600
1615	854025 185 387 1768 0.1 1 10 0 27840 220480 6080819200
1616	854210 1059 175 1729 0.000120892907 0.875043829857 32 5.76e-06 8.16e-06 0.00022048 1.5605248e-09
1628	855269 11 0 0 0 0 1 0 0 0 0
1629	855280 11 0 0 0 0 1 0 0 0 0
1630	855291 11 0 0 0 0 1 0 0 0 0
1631	855302 273 426 1663 0.12502967702 0.875027989857 7 0.125029860298 0.875029860067 3.500209021257 2.1877090272549
1632	855575 516 426 1663 0.12502967702 0.875027989857 14 1.83278e-07 2.346163e-06 2.0078957e-05 3.4299702830775e-11
1633	856091 272 426 1663 0.12502967702 0.875027989857 7 0.99999355365755 1.0000012114335 6.9999900375666 6.9999800751877
1634	856363 35 301 301 0.000142972907 0.000142972907 1 4.9992e-08 4.9992e-08 4.9992e-08 2.499200064e-15
1636	856398 275 502 1732 0.12504551702 0.875043829857 7 0.125045383843 0.875046087064 3.500320184569 2.1878212451365
1637	856673 518 502 1732 0.12504551702 0.875043829857 14 -1.33177e-07 8.684454e-06 3.6135713e-05 1.910867939397e-10
1638	857191 271 502 1732 0.12504551702 0.875043829857 7 0.99993310543657 1.0000052908179 6.9999278296274 6.999855663839
1639	857462 34 233 233 0.000128252907 0.000128252907 1 5.037e-08 5.037e-08 5.037e-08 2.5371369e-15
1643	857496 903 175 1729 0.000120892907 0.875043829857 32 368 608 15392 7817728
1644	858399 185 387 1768 0.1 1 10 0 19520 153920 2965811200
1646	858584 588 0 1768 0 1 16 0 1.000001746598 8.000644513759 5.3756482088057
1648	859172 589 0 1768 0 1 16 0 1.000001916424 8.000433852648 5.3754337030179
1649	859761 588 0 1768 0 1 16 0 1.000001746598 8.000644513759 5.3756482088057
1650	860349 54 31 49 0.000099997529 0.000100001526 2 432 432 864 373248
1652	860403 54 31 49 0.000099997529 0.000100001526 2 544 544 1088 591872
1658	860457 54 31 49 0.000099997529 0.000100001526 2 544 544 1088 591872
1660	860511 54 31 49 0.000099997529 0.000100001526 2 544 544 1088 591872
1666	860565 54 31 49 0.000099997529 0.000100001526 2 544 544 1088 591872
1668	860619 54 31 49 0.000099997529 0.000100001526 2 576 576 1152 663552
1674	860673 908 183 1722 0.000120896978 0.875043637062 32 480 720 18976 11666944
1675	861581 153 401 1610 0.1 0.8 8 0 24000 165760 3929497600
1676	861734 908 183 1722 0.000120896978 0.875043637062 32 368 608 15392 7817728
1677	862642 153 401 1610 0.1 0.8 8 0 19520 134400 2584780800
1679	862795 158 1768 1768 0.1 1 10 0 0 0 0
1686	862953 908 183 1722 0.000120896978 0.875043637062 32 512 752 20000 12914176
1687	863861 153 401 1610 0.1 0.8 8 0 25280 174720 4365312000
1688	864014 908 183 1722 0.000120896978 0.875043637062 32 480 720 18976 11666944
1689	864922 153 401 1610 0.1 0.8 8 0 24000 165760 3929497600
1691	865075 158 1768 1768 0.1 1 10 0 0 0 0
1702	865233 155 0 92 0 0.000107357529 9 0 1 2 2
1703	865388 159 0 92 0 0.000107357529 9 0 576 1152 663552
1704	865547 61 32 92 0.000099997529 0.000107357529 2 0 7.356003e-06 7.356003e-06 5.4110780136009e-11
1705	865608 54 31 49 0.000099997529 0.000100001526 2 576 576 1152 663552
1706	865662 162 1768 1768 0.1 1 10 0 11520 11520 132710400
1707	865824 54 32 92 0.000099997529 0.000107357529 2 576 576 1152 663552
1708	865878 162 1768 1768 0.1 1 10 0 11520 11520 132710400
1713	866040 54 32 92 0.000099997529 0.000107357529 2 576 576 1152 663552
1714	866094 162 1768 1768 0.1 1 10 0 11520 11520 132710400
1715	866256 54 32 92 0.000099997529 0.000107357529 2 576 576 1152 663552
1716	866310 162 1768 1768 0.1 1 10 0 11520 11520 132710400
1717	866472 54 32 92 0.000099997529 0.000107357529 2 576 576 1152 663552
1719	866526 54 32 92 0.000099997529 0.000107357529 2 576 576 1152 663552
1725	866580 908 183 1722 0.000120896978 0.875043637062 32 512 752 20000 12914176
1726	867488 153 401 1610 0.1 0.8 8 0 25280 174720 4365312000
1727	867641 908 183 1722 0.000120896978 0.875043637062 32 512 752 20000 12914176
1728	868549 153 401 1610 0.1 0.8 8 0 25280 174720 4365312000
1730	868702 158 1768 1768 0.1 1 10 0 0 0 0
1737	868860 908 183 1722 0.000120896978 0.875043637062 32 512 752 20000 12914176
1738	869768 153 401 1610 0.1 0.8 8 0 25280 174720 4365312000
1739	869921 908 183 1722 0.000120896978 0.875043637062 32 512 752 20000 12914176
1740	870829 153 401 1610 0.1 0.8 8 0 25280 174720 4365312000
1745	870982 54 32 92 0.000099997529 0.000107357529 2 576 576 1152 663552
1747	871036 54 32 92 0.000099997529 0.000107357529 2 640 640 1280 819200
1753	871090 124 0 144 0 0.000114717529 6 0 1 2 2
1754	871214 54 32 92 0.000099997529 0.000107357529 2 640 640 1280 819200
1756	871268 54 32 92 0.000099997529 0.000107357529 2 640 640 1280 819200
1762	871322 123 0 102 0 0.000113757529 6 0 1 2 2
1763	871445 162 1768 1768 0.1 1 10 0 12800 12800 163840000
1765	871607 63 59 102 0.000106397529 0.000113757529 2 6.4e-06 6.4e-06 1.28e-05 8.192e-11
1767	871670 908 183 1722 0.000120896978 0.875043637062 32 576 816 22048 15605248
1768	872578 153 401 1610 0.1 0.8 8 0 27840 192640 5305753600
1769	872731 908 183 1722 0.000120896978 0.875043637062 32 512 752 20000 12914176
1770	873639 153 401 1610 0.1 0.8 8 0 25280 174720 4365312000
1772	873792 158 1768 1768 0.1 1 10 0 0 0 0
1779	873950 908 183 1722 0.000120896978 0.875043637062 32 576 816 22048 15605248
1780	874858 153 401 1610 0.1 0.8 8 0 27840 192640 5305753600
1781	875011 908 183 1722 0.000120896978 0.875043637062 32 576 816 22048 15605248
1782	875919 153 401 1610 0.1 0.8 8 0 27840 192640 5305753600
1787	876072 187 401 1768 0.1 1 10 0 27840 220480 6080819200
1788	876259 1064 183 1722 0.000120896978 0.875043637062 32 5.76e-06 8.16e-06 0.00022048 1.5605248e-09
1800	877323 11 0 0 0 0 1 0 0 0 0
1801	877334 11 0 0 0 0 1 0 0 0 0
1802	877345 11 0 0 0 0 1 0 0 0 0
1803	877356 275 508 1724 0.125045835626 0.875043637062 7 0.125046018992 0.875045506886 3.500323322682 2.1878227627067
1804	877631 521 508 1724 0.125045835626 0.875043637062 14 -1.909329e-06 2.345839e-06 1.4012665e-05 3.7945224797711e-11
1805	878152 272 508 1724 0.125045835626 0.875043637062 7 0.99999717829833 1.0000177972877 7.000014283175 7.0000285666798
1806	878424 35 305 305 0.000142976978 0.000142976978 1 4.9365e-08 4.9365e-08 4.9365e-08 2.436903225e-15
1808	878459 275 440 1649 0.125029995626 0.875027797062 7 0.125029861429 0.875030053927 3.500212641197 2.187713120098
1809	878734 521 440 1649 0.125029995626 0.875027797062 14 -1.34197e-07 3.089833e-06 2.4941728e-05 6.0860574590814e-11
1810	879255 273 440 1649 0.125029995626 0.875027797062 7 0.99997783976365 1.0000052908947 6.9999725637273 6.9999451280551
1811	879528 35 241 241 0.000128256978 0.000128256978 1 4.9684e-08 4.9684e-08 4.9684e-08 2.468499856e-15
1815	879563 908 183 1722 0.000120896978 0.875043637062 32 368 608 15392 7817728
1816	880471 187 401 1768 0.1 1 10 0 19520 153920 2965811200
1818	880658 589 0 1768 0 1 16 0 1.000001747136 8.000655636898 5.3756523866082
1820	881247 587 0 1768 0 1 16 0 1.000001915738 8.000421880765 5.3754292055979
1821	881834 589 0 1768 0 1 16 0 1.000001747136 8.000655636898 5.3756523866082
1822	882423 54 28 52 0.000099997083 0.000100002312 2 432 432 864 373248
1824	882477 54 28 52 0.000099997083 0.000100002312 2 544 544 1088 591872
1830	882531 54 28 52 0.000099997083 0.000100002312 2 544 544 1088 591872
1832	882585 54 28 52 0.000099997083 0.000100002312 2 544 544 1088 591872
1838	882639 54 28 52 0.000099997083 0.000100002312 2 544 544 1088 591872
1840	882693 54 28 52 0.000099997083 0.000100002312 2 576 576 1152 663552
1846	882747 908 181 1723 0.000120896739 0.875043637062 32 480 720 18976 11666944
1847	883655 153 402 1611 0.1 0.8 8 0 24000 165760 3929497600
1848	883808 908 181 1723 0.000120896739 0.875043637062 32 368 608 15392 7817728
1849	884716 153 402 1611 0.1 0.8 8 0 19520 134400 2584780800
1851	884869 158 1768 1768 0.1 1 10 0 0 0 0
1858	885027 908 181 1723 0.000120896739 0.875043637062 32 512 752 20000 12914176
1859	885935 153 402 1611 0.1 0.8 8 0 25280 174720 4365312000
1860	886088 908 181 1723 0.000120896739 0.875043637062 32 480 720 18976 11666944
1861	886996 153 402 1611 0.1 0.8 8 0 24000 165760 3929497600
1863	887149 158 1768 1768 0.1 1 10 0 0 0 0
1874	887307 155 0 90 0 0.000107357083 9 0 1 2 2
1875	887462 159 0 90 0 0.000107357083 9 0 576 1152 663552
1876	887621 61 29 90 0.000099997083 0.000107357083 2 0 7.354771e-06 7.354771e-06 5.4092656462441e-11
1877	887682 54 28 52 0.000099997083 0.000100002312 2 576 576 1152 663552
1878	887736 162 1768 1768 0.1 1 10 0 11520 11520 132710400
1879	887898 54 29 90 0.000099997083 0.000107357083 2 576 576 1152 663552
1880	887952 162 1768 1768 0.1 1 10 0 11520 11520 132710400
1885	888114 54 29 90 0.000099997083 0.000107357083 2 576 576 1152 663552
1886	888168 162 1768 1768 0.1 1 10 0 11520 11520 132710400
1887	888330 54 29 90 0.000099997083 0.000107357083 2 576 576 1152 663552
1888	888384 162 1768 1768 0.1 1 10 0 11520 11520 132710400
1889	888546 54 29 90 0.000099997083 0.000107357083 2 576 576 1152 663552
1891	888600 54 29 90 0.000099997083 0.000107357083 2 576 576 1152 663552
1897	888654 908 181 1723 0.000120896739 0.875043637062 32 512 752 20000 12914176
1898	889562 153 402 1611 0.1 0.8 8 0 25280 174720 4365312000
1899	889715 908 181 1723 0.000120896739 0.875043637062 32 512 752 20000 12914176
1900	890623 153 402 1611 0.1 0.8 8 0 25280 174720 4365312000
1902	890776 158 1768 1768 0.1 1 10 0 0 0 0
1909	890934 908 181 1723 0.000120896739 0.875043637062 32 512 752 20000 12914176
1910	891842 153 402 1611 0.1 0.8 8 0 25280 174720 4365312000
1911	891995 908 181 1723 0.000120896739 0.875043637062 32 512 752 20000 12914176
1912	892903 153 402 1611 0.1 0.8 8 0 25280 174720 4365312000
1917	893056 54 29 90 0.000099997083 0.000107357083 2 576 576 1152 663552
1919	893110 54 29 90 0.000099997083 0.000107357083 2 640 640 1280 819200
1925	893164 124 0 142 0 0.000114717083 6 0 1 2 2
1926	893288 54 29 90 0.000099997083 0.000107357083 2 640 640 1280 819200
1928	893342 54 29 90 0.000099997083 0.000107357083 2 640 640 1280 819200
1934	893396 123 0 101 0 0.000113757083 6 0 1 2 2
1935	893519 162 1768 1768 0.1 1 10 0 12800 12800 163840000
1937	893681 63 58 101 0.000106397083 0.000113757083 2 6.4e-06 6.4e-06 1.28e-05 8.192e-11
1939	893744 908 181 1723 0.000120896739 0.875043637062 32 576 816 22048 15605248
1940	894652 153 402 1611 0.1 0.8 8 0 27840 192640 5305753600
1941	894805 908 181 1723 0.000120896739 0.875043637062 32 512 752 20000 12914176
1942	895713 153 402 1611 0.1 0.8 8 0 25280 174720 4365312000
1944	895866 158 1768 1768 0.1 1 10 0 0 0 0
1951	896024 908 181 1723 0.000120896739 0.875043637062 32 576 816 22048 15605248
1952	896932 153 402 1611 0.1 0.8 8 0 27840 192640 5305753600
1953	897085 908 181 1723 0.000120896739 0.875043637062 32 576 816 22048 15605248
1954	897993 153 402 1611 0.1 0.8 8 0 27840 192640 5305753600
1959	898146 187 402 1768 0.1 1 10 0 27840 220480 6080819200
1960	898333 1064 181 1723 0.000120896739 0.875043637062 32 5.76e-06 8.16e-06 0.00022048 1.5605248e-09
1972	899397 11 0 0 0 0 1 0 0 0 0
1973	899408 11 0 0 0 0 1 0 0 0 0
1974	899419 11 0 0 0 0 1 0 0 0 0
1975	899430 276 509 1725 0.125045835626 0.875043637062 7 0.125046019934 0.875045507423 3.50032332725 2.1878227667676
1976	899706 519 509 1725 0.125045835626 0.875043637062 14 1.84308e-07 3.831661e-06 2.5135266e-05 5.9337871025554e-11
1977	900225 273 509 1725 0.125045835626 0.875043637062 7 0.99997334992163 1.0000012108171 6.9999698358169 6.9999396723571
1978	900498 35 239 239 0.000128256739 0.000128256739 1 4.9902e-08 4.9902e-08 4.9902e-08 2.490209604e-15
1980	900533 276 441 1650 0.125029995626 0.875027797062 7 0.125029860308 0.875030053241 3.500212635522 2.1877131149671
1981	900809 522 441 1650 0.125029995626 0.875027797062 14 -3.025776e-06 3.072232e-06 1.2970531e-05 6.0069749935429e-11
1982	901331 272 441 1650 0.125029995626 0.875027797062 7 0.99999347185107 1.0000256762177 7.0000204001734 7.0000408011154
1983	901603 35 303 303 0.000142976739 0.000142976739 1 4.8998e-08 4.8998e-08 4.8998e-08 2.400804004e-15
1987	901638 908 181 1723 0.000120896739 0.875043637062 32 368 608 15392 7817728
1988	902546 187 402 1768 0.1 1 10 0 19520 153920 2965811200

