version 3
run PrimaryAndHotStandbyMasterClocks-0-20250714-17:18:22-17337
attr configname PrimaryAndHotStandbyMasterClocks
attr datetime 20250714-17:18:22
attr datetimef 20250714-171822
attr experiment PrimaryAndHotStandbyMasterClocks
attr inifile omnetpp.ini
attr iterationvars ""
attr iterationvarsd ""
attr iterationvarsf ""
attr measurement ""
attr network TwoMasterClocksTreeGptpShowcase
attr processid 17337
attr repetition 0
attr replication #0
attr resultdir results
attr runnumber 0
attr seedset 0
config image-path ../../../../images
config network TwoMasterClocksTreeGptpShowcase
config description "Extended tree topology with two master clocks"
config experiment-label PrimaryAndHotStandbyMasterClocks
config *.tsnClock2.clock.typename SettableClock
config *.tsnClock1.gptp.typename Gptp
config *.tsnClock1.gptp.clockModule "\"tsnClock1.clock\""
config *.tsnClock1.gptp.masterPorts "[\"eth0\"]"
config *.tsnClock2.gptp.typename MultiDomainGptp
config *.tsnClock2.gptp.numDomains 2
config *.tsnClock2.gptp.domain[*].clockModule "\"tsnClock2.clock\""
config *.tsnClock2.gptp.domain[0].gptpNodeType "\"SLAVE_NODE\""
config *.tsnClock2.gptp.domain[0].slavePort "\"eth0\""
config *.tsnClock2.gptp.domain[1].gptpNodeType "\"MASTER_NODE\""
config *.tsnClock2.gptp.domain[1].masterPorts "[\"eth0\"]"
config *.tsnSwitch*.clock.typename MultiClock
config *.tsnSwitch*.clock.numClocks 2
config *.tsnSwitch*.gptp.typename MultiDomainGptp
config *.tsnSwitch*.gptp.numDomains 2
config *.tsnSwitch1.gptp.domain[0].slavePort "\"eth0\""
config *.tsnSwitch1.gptp.domain[0].masterPorts "[\"eth1\", \"eth2\", \"eth3\"]"
config *.tsnSwitch1.gptp.domain[1].slavePort "\"eth1\""
config *.tsnSwitch1.gptp.domain[1].masterPorts "[\"eth2\", \"eth3\"]"
config *.tsnSwitch2.gptp.domain[0].slavePort "\"eth1\""
config *.tsnSwitch2.gptp.domain[0].masterPorts "[\"eth0\", \"eth2\", \"eth3\"]"
config *.tsnSwitch2.gptp.domain[1].slavePort "\"eth0\""
config *.tsnSwitch2.gptp.domain[1].masterPorts "[\"eth1\", \"eth2\", \"eth3\"]"
config *.tsnDevice*.clock.typename MultiClock
config *.tsnDevice*.clock.numClocks 2
config *.tsnDevice*.gptp.typename MultiDomainGptp
config *.tsnDevice*.gptp.numDomains 2
config *.tsnDevice1.gptp.clockModule "\"tsnDevice1.clock\""
config *.tsnDevice2.gptp.clockModule "\"tsnDevice2.clock\""
config *.tsnDevice3.gptp.clockModule "\"tsnDevice3.clock\""
config *.tsnDevice4.gptp.clockModule "\"tsnDevice4.clock\""
config *.tsnDevice*.gptp.domain[*].slavePort "\"eth0\""
config **.pdelayInitialOffset 100us
config *.*.gptp.domain[0].syncInitialOffset "syncInterval * 1 / 2"
config *.*.gptp.domain[1].syncInitialOffset "syncInterval * 2 / 2"
config **.clock[0].referenceClock "\"tsnClock1.clock\""
config **.clock[1].referenceClock "\"tsnClock2.clock\""
config *.visualizer.numDataLinkVisualizers 2
config *.visualizer.dataLinkVisualizer[*].displayLinks true
config *.visualizer.dataLinkVisualizer[*].activityLevel "\"protocol\""
config *.visualizer.dataLinkVisualizer[0].packetFilter "expr((has(GptpSync) && GptpSync.domainNumber == 0) || (has(GptpFollowUp) && GptpFollowUp.domainNumber == 0))"
config *.visualizer.dataLinkVisualizer[1].packetFilter "expr((has(GptpSync) && GptpSync.domainNumber == 1) || (has(GptpFollowUp) && GptpFollowUp.domainNumber == 1))"
config *.visualizer.dataLinkVisualizer[0].tags "\"primary GM\""
config *.visualizer.dataLinkVisualizer[1].tags "\"hot-standby GM\""
config *.visualizer.dataLinkVisualizer[0].lineColor "\"blue2\""
config *.visualizer.dataLinkVisualizer[1].lineColor "\"red2\""
config *.visualizer.numInfoVisualizers 8
config *.visualizer.infoVisualizer[0].modules "\"*.tsnDevice*.*.clock[0]\""
config *.visualizer.infoVisualizer[0].textColor "\"blue\""
config *.visualizer.infoVisualizer[1].modules "\"*.tsnDevice*.*.clock[1]\""
config *.visualizer.infoVisualizer[1].textColor "\"red\""
config *.visualizer.infoVisualizer[0..1].placementHint "\"bottom\""
config *.visualizer.infoVisualizer[2].modules "\"*.tsnClock1.clock\""
config *.visualizer.infoVisualizer[3].modules "\"*.tsnClock2.clock\""
config *.visualizer.infoVisualizer[2].textColor "\"blue\""
config *.visualizer.infoVisualizer[3].textColor "\"red\""
config *.tsnClock*.clock.displayStringTextFormat "\"time: %T\""
config *.visualizer.infoVisualizer[4].modules "\"*.tsnSwitch1.*.clock[0]\""
config *.visualizer.infoVisualizer[5].modules "\"*.tsnSwitch1.*.clock[1]\""
config *.visualizer.infoVisualizer[6].modules "\"*.tsnSwitch2.*.clock[0]\""
config *.visualizer.infoVisualizer[7].modules "\"*.tsnSwitch2.*.clock[1]\""
config *.visualizer.infoVisualizer[{4,6}].textColor "\"blue\""
config *.visualizer.infoVisualizer[{5,7}].textColor "\"red\""
config *.tsnDevice*.clock.*.displayStringTextFormat "\"diff: %d\""
config *.tsnSwitch*.clock.*.displayStringTextFormat "\"diff: %d\""
config *.visualizer.infoVisualizer[4..5].placementHint "\"topLeft\""
config *.visualizer.infoVisualizer[6..7].placementHint "\"topRight\""
config experiment-label PrimaryAndHotStandbyMasterClocks
config sim-time-limit 1s
config description abstract
config *.*.hasTimeSynchronization true
config **.tsnClock*.clock.oscillator.typename RandomDriftOscillator
config **.oscillator.changeInterval 12.5ms
config **.oscillator.driftRate "uniform(-100ppm, 100ppm)"
config **.oscillator.driftRateChange "uniform(-1ppm, 1ppm)"
config **.oscillator.driftRateChangeUpperLimit 100ppm
config **.oscillator.driftRateChangeLowerLimit -100ppm
config *.*.eth[*].bitrate 100Mbps
config *.visualizer.typename IntegratedMultiCanvasVisualizer
config *.visualizer.infoVisualizer[*].displayInfos true

par TwoMasterClocksTreeGptpShowcase.tsnClock1.ethg$o[0].channel typename "\"inet.node.ethernet.EthernetLink\""
par TwoMasterClocksTreeGptpShowcase.tsnClock1.ethg$o[0].channel disabled false
attr mutable ""
par TwoMasterClocksTreeGptpShowcase.tsnClock1.ethg$o[0].channel delay 5e-08s
attr mutable ""
attr unit s
par TwoMasterClocksTreeGptpShowcase.tsnClock1.ethg$o[0].channel datarate 0bps
attr mutable ""
attr unit bps
par TwoMasterClocksTreeGptpShowcase.tsnClock1.ethg$o[0].channel ber 0
attr mutable ""
par TwoMasterClocksTreeGptpShowcase.tsnClock1.ethg$o[0].channel per 0
attr mutable ""
par TwoMasterClocksTreeGptpShowcase.tsnClock1.ethg$o[0].channel length 10m
attr unit m
par TwoMasterClocksTreeGptpShowcase.tsnSwitch1.ethg$o[0].channel typename "\"inet.node.ethernet.EthernetLink\""
par TwoMasterClocksTreeGptpShowcase.tsnSwitch1.ethg$o[0].channel disabled false
attr mutable ""
par TwoMasterClocksTreeGptpShowcase.tsnSwitch1.ethg$o[0].channel delay 5e-08s
attr mutable ""
attr unit s
par TwoMasterClocksTreeGptpShowcase.tsnSwitch1.ethg$o[0].channel datarate 0bps
attr mutable ""
attr unit bps
par TwoMasterClocksTreeGptpShowcase.tsnSwitch1.ethg$o[0].channel ber 0
attr mutable ""
par TwoMasterClocksTreeGptpShowcase.tsnSwitch1.ethg$o[0].channel per 0
attr mutable ""
par TwoMasterClocksTreeGptpShowcase.tsnSwitch1.ethg$o[0].channel length 10m
attr unit m
par TwoMasterClocksTreeGptpShowcase.tsnClock2.ethg$o[0].channel typename "\"inet.node.ethernet.EthernetLink\""
par TwoMasterClocksTreeGptpShowcase.tsnClock2.ethg$o[0].channel disabled false
attr mutable ""
par TwoMasterClocksTreeGptpShowcase.tsnClock2.ethg$o[0].channel delay 5e-08s
attr mutable ""
attr unit s
par TwoMasterClocksTreeGptpShowcase.tsnClock2.ethg$o[0].channel datarate 0bps
attr mutable ""
attr unit bps
par TwoMasterClocksTreeGptpShowcase.tsnClock2.ethg$o[0].channel ber 0
attr mutable ""
par TwoMasterClocksTreeGptpShowcase.tsnClock2.ethg$o[0].channel per 0
attr mutable ""
par TwoMasterClocksTreeGptpShowcase.tsnClock2.ethg$o[0].channel length 10m
attr unit m
par TwoMasterClocksTreeGptpShowcase.tsnSwitch2.ethg$o[0].channel typename "\"inet.node.ethernet.EthernetLink\""
par TwoMasterClocksTreeGptpShowcase.tsnSwitch2.ethg$o[0].channel disabled false
attr mutable ""
par TwoMasterClocksTreeGptpShowcase.tsnSwitch2.ethg$o[0].channel delay 5e-08s
attr mutable ""
attr unit s
par TwoMasterClocksTreeGptpShowcase.tsnSwitch2.ethg$o[0].channel datarate 0bps
attr mutable ""
attr unit bps
par TwoMasterClocksTreeGptpShowcase.tsnSwitch2.ethg$o[0].channel ber 0
attr mutable ""
par TwoMasterClocksTreeGptpShowcase.tsnSwitch2.ethg$o[0].channel per 0
attr mutable ""
par TwoMasterClocksTreeGptpShowcase.tsnSwitch2.ethg$o[0].channel length 10m
attr unit m
par TwoMasterClocksTreeGptpShowcase.tsnSwitch1.ethg$o[1].channel typename "\"inet.node.ethernet.EthernetLink\""
par TwoMasterClocksTreeGptpShowcase.tsnSwitch1.ethg$o[1].channel disabled false
attr mutable ""
par TwoMasterClocksTreeGptpShowcase.tsnSwitch1.ethg$o[1].channel delay 5e-08s
attr mutable ""
attr unit s
par TwoMasterClocksTreeGptpShowcase.tsnSwitch1.ethg$o[1].channel datarate 0bps
attr mutable ""
attr unit bps
par TwoMasterClocksTreeGptpShowcase.tsnSwitch1.ethg$o[1].channel ber 0
attr mutable ""
par TwoMasterClocksTreeGptpShowcase.tsnSwitch1.ethg$o[1].channel per 0
attr mutable ""
par TwoMasterClocksTreeGptpShowcase.tsnSwitch1.ethg$o[1].channel length 10m
attr unit m
par TwoMasterClocksTreeGptpShowcase.tsnSwitch2.ethg$o[1].channel typename "\"inet.node.ethernet.EthernetLink\""
par TwoMasterClocksTreeGptpShowcase.tsnSwitch2.ethg$o[1].channel disabled false
attr mutable ""
par TwoMasterClocksTreeGptpShowcase.tsnSwitch2.ethg$o[1].channel delay 5e-08s
attr mutable ""
attr unit s
par TwoMasterClocksTreeGptpShowcase.tsnSwitch2.ethg$o[1].channel datarate 0bps
attr mutable ""
attr unit bps
par TwoMasterClocksTreeGptpShowcase.tsnSwitch2.ethg$o[1].channel ber 0
attr mutable ""
par TwoMasterClocksTreeGptpShowcase.tsnSwitch2.ethg$o[1].channel per 0
attr mutable ""
par TwoMasterClocksTreeGptpShowcase.tsnSwitch2.ethg$o[1].channel length 10m
attr unit m
par TwoMasterClocksTreeGptpShowcase.tsnSwitch1.ethg$o[2].channel typename "\"inet.node.ethernet.EthernetLink\""
par TwoMasterClocksTreeGptpShowcase.tsnSwitch1.ethg$o[2].channel disabled false
attr mutable ""
par TwoMasterClocksTreeGptpShowcase.tsnSwitch1.ethg$o[2].channel delay 5e-08s
attr mutable ""
attr unit s
par TwoMasterClocksTreeGptpShowcase.tsnSwitch1.ethg$o[2].channel datarate 0bps
attr mutable ""
attr unit bps
par TwoMasterClocksTreeGptpShowcase.tsnSwitch1.ethg$o[2].channel ber 0
attr mutable ""
par TwoMasterClocksTreeGptpShowcase.tsnSwitch1.ethg$o[2].channel per 0
attr mutable ""
par TwoMasterClocksTreeGptpShowcase.tsnSwitch1.ethg$o[2].channel length 10m
attr unit m
par TwoMasterClocksTreeGptpShowcase.tsnDevice1.ethg$o[0].channel typename "\"inet.node.ethernet.EthernetLink\""
par TwoMasterClocksTreeGptpShowcase.tsnDevice1.ethg$o[0].channel disabled false
attr mutable ""
par TwoMasterClocksTreeGptpShowcase.tsnDevice1.ethg$o[0].channel delay 5e-08s
attr mutable ""
attr unit s
par TwoMasterClocksTreeGptpShowcase.tsnDevice1.ethg$o[0].channel datarate 0bps
attr mutable ""
attr unit bps
par TwoMasterClocksTreeGptpShowcase.tsnDevice1.ethg$o[0].channel ber 0
attr mutable ""
par TwoMasterClocksTreeGptpShowcase.tsnDevice1.ethg$o[0].channel per 0
attr mutable ""
par TwoMasterClocksTreeGptpShowcase.tsnDevice1.ethg$o[0].channel length 10m
attr unit m
par TwoMasterClocksTreeGptpShowcase.tsnSwitch1.ethg$o[3].channel typename "\"inet.node.ethernet.EthernetLink\""
par TwoMasterClocksTreeGptpShowcase.tsnSwitch1.ethg$o[3].channel disabled false
attr mutable ""
par TwoMasterClocksTreeGptpShowcase.tsnSwitch1.ethg$o[3].channel delay 5e-08s
attr mutable ""
attr unit s
par TwoMasterClocksTreeGptpShowcase.tsnSwitch1.ethg$o[3].channel datarate 0bps
attr mutable ""
attr unit bps
par TwoMasterClocksTreeGptpShowcase.tsnSwitch1.ethg$o[3].channel ber 0
attr mutable ""
par TwoMasterClocksTreeGptpShowcase.tsnSwitch1.ethg$o[3].channel per 0
attr mutable ""
par TwoMasterClocksTreeGptpShowcase.tsnSwitch1.ethg$o[3].channel length 10m
attr unit m
par TwoMasterClocksTreeGptpShowcase.tsnDevice2.ethg$o[0].channel typename "\"inet.node.ethernet.EthernetLink\""
par TwoMasterClocksTreeGptpShowcase.tsnDevice2.ethg$o[0].channel disabled false
attr mutable ""
par TwoMasterClocksTreeGptpShowcase.tsnDevice2.ethg$o[0].channel delay 5e-08s
attr mutable ""
attr unit s
par TwoMasterClocksTreeGptpShowcase.tsnDevice2.ethg$o[0].channel datarate 0bps
attr mutable ""
attr unit bps
par TwoMasterClocksTreeGptpShowcase.tsnDevice2.ethg$o[0].channel ber 0
attr mutable ""
par TwoMasterClocksTreeGptpShowcase.tsnDevice2.ethg$o[0].channel per 0
attr mutable ""
par TwoMasterClocksTreeGptpShowcase.tsnDevice2.ethg$o[0].channel length 10m
attr unit m
par TwoMasterClocksTreeGptpShowcase.tsnSwitch2.ethg$o[2].channel typename "\"inet.node.ethernet.EthernetLink\""
par TwoMasterClocksTreeGptpShowcase.tsnSwitch2.ethg$o[2].channel disabled false
attr mutable ""
par TwoMasterClocksTreeGptpShowcase.tsnSwitch2.ethg$o[2].channel delay 5e-08s
attr mutable ""
attr unit s
par TwoMasterClocksTreeGptpShowcase.tsnSwitch2.ethg$o[2].channel datarate 0bps
attr mutable ""
attr unit bps
par TwoMasterClocksTreeGptpShowcase.tsnSwitch2.ethg$o[2].channel ber 0
attr mutable ""
par TwoMasterClocksTreeGptpShowcase.tsnSwitch2.ethg$o[2].channel per 0
attr mutable ""
par TwoMasterClocksTreeGptpShowcase.tsnSwitch2.ethg$o[2].channel length 10m
attr unit m
par TwoMasterClocksTreeGptpShowcase.tsnDevice3.ethg$o[0].channel typename "\"inet.node.ethernet.EthernetLink\""
par TwoMasterClocksTreeGptpShowcase.tsnDevice3.ethg$o[0].channel disabled false
attr mutable ""
par TwoMasterClocksTreeGptpShowcase.tsnDevice3.ethg$o[0].channel delay 5e-08s
attr mutable ""
attr unit s
par TwoMasterClocksTreeGptpShowcase.tsnDevice3.ethg$o[0].channel datarate 0bps
attr mutable ""
attr unit bps
par TwoMasterClocksTreeGptpShowcase.tsnDevice3.ethg$o[0].channel ber 0
attr mutable ""
par TwoMasterClocksTreeGptpShowcase.tsnDevice3.ethg$o[0].channel per 0
attr mutable ""
par TwoMasterClocksTreeGptpShowcase.tsnDevice3.ethg$o[0].channel length 10m
attr unit m
par TwoMasterClocksTreeGptpShowcase.tsnSwitch2.ethg$o[3].channel typename "\"inet.node.ethernet.EthernetLink\""
par TwoMasterClocksTreeGptpShowcase.tsnSwitch2.ethg$o[3].channel disabled false
attr mutable ""
par TwoMasterClocksTreeGptpShowcase.tsnSwitch2.ethg$o[3].channel delay 5e-08s
attr mutable ""
attr unit s
par TwoMasterClocksTreeGptpShowcase.tsnSwitch2.ethg$o[3].channel datarate 0bps
attr mutable ""
attr unit bps
par TwoMasterClocksTreeGptpShowcase.tsnSwitch2.ethg$o[3].channel ber 0
attr mutable ""
par TwoMasterClocksTreeGptpShowcase.tsnSwitch2.ethg$o[3].channel per 0
attr mutable ""
par TwoMasterClocksTreeGptpShowcase.tsnSwitch2.ethg$o[3].channel length 10m
attr unit m
par TwoMasterClocksTreeGptpShowcase.tsnDevice4.ethg$o[0].channel typename "\"inet.node.ethernet.EthernetLink\""
par TwoMasterClocksTreeGptpShowcase.tsnDevice4.ethg$o[0].channel disabled false
attr mutable ""
par TwoMasterClocksTreeGptpShowcase.tsnDevice4.ethg$o[0].channel delay 5e-08s
attr mutable ""
attr unit s
par TwoMasterClocksTreeGptpShowcase.tsnDevice4.ethg$o[0].channel datarate 0bps
attr mutable ""
attr unit bps
par TwoMasterClocksTreeGptpShowcase.tsnDevice4.ethg$o[0].channel ber 0
attr mutable ""
par TwoMasterClocksTreeGptpShowcase.tsnDevice4.ethg$o[0].channel per 0
attr mutable ""
par TwoMasterClocksTreeGptpShowcase.tsnDevice4.ethg$o[0].channel length 10m
attr unit m
par TwoMasterClocksTreeGptpShowcase.visualizer.sceneVisualizer[0] typename "\"inet.visualizer.canvas.scene.SceneCanvasVisualizer\""
par TwoMasterClocksTreeGptpShowcase.visualizer.sceneVisualizer[0] visualizationTargetModule "\"^.^\""
par TwoMasterClocksTreeGptpShowcase.visualizer.sceneVisualizer[0] visualizationSubjectModule "\"^.^\""
par TwoMasterClocksTreeGptpShowcase.visualizer.sceneVisualizer[0] tags "\"\""
par TwoMasterClocksTreeGptpShowcase.visualizer.sceneVisualizer[0] physicalEnvironmentModule "\"physicalEnvironment\""
par TwoMasterClocksTreeGptpShowcase.visualizer.sceneVisualizer[0] networkNodeVisualizerModule "\"TwoMasterClocksTreeGptpShowcase.visualizer.networkNodeVisualizer[0]\""
par TwoMasterClocksTreeGptpShowcase.visualizer.sceneVisualizer[0] axisLength "nan m"
attr mutable ""
attr unit m
par TwoMasterClocksTreeGptpShowcase.visualizer.sceneVisualizer[0] animationSpeed 0
par TwoMasterClocksTreeGptpShowcase.visualizer.sceneVisualizer[0] sceneMinX "nan m"
attr unit m
par TwoMasterClocksTreeGptpShowcase.visualizer.sceneVisualizer[0] sceneMinY "nan m"
attr unit m
par TwoMasterClocksTreeGptpShowcase.visualizer.sceneVisualizer[0] sceneMinZ "nan m"
attr unit m
par TwoMasterClocksTreeGptpShowcase.visualizer.sceneVisualizer[0] sceneMaxX "nan m"
attr unit m
par TwoMasterClocksTreeGptpShowcase.visualizer.sceneVisualizer[0] sceneMaxY "nan m"
attr unit m
par TwoMasterClocksTreeGptpShowcase.visualizer.sceneVisualizer[0] sceneMaxZ "nan m"
attr unit m
par TwoMasterClocksTreeGptpShowcase.visualizer.sceneVisualizer[0] zIndex 0
par TwoMasterClocksTreeGptpShowcase.visualizer.sceneVisualizer[0] viewAngle "\"x right y down z out\""
attr mutable ""
par TwoMasterClocksTreeGptpShowcase.visualizer.sceneVisualizer[0] viewScale "\"1 1\""
attr mutable ""
par TwoMasterClocksTreeGptpShowcase.visualizer.sceneVisualizer[0] viewTranslation "\"0 0\""
attr mutable ""
par TwoMasterClocksTreeGptpShowcase.visualizer.sceneVisualizer[0] descriptionFigure "\"\""
par TwoMasterClocksTreeGptpShowcase.visualizer.physicalEnvironmentVisualizer[0] typename "\"inet.visualizer.canvas.environment.PhysicalEnvironmentCanvasVisualizer\""
par TwoMasterClocksTreeGptpShowcase.visualizer.physicalEnvironmentVisualizer[0] visualizationTargetModule "\"^.^\""
par TwoMasterClocksTreeGptpShowcase.visualizer.physicalEnvironmentVisualizer[0] visualizationSubjectModule "\"^.^\""
par TwoMasterClocksTreeGptpShowcase.visualizer.physicalEnvironmentVisualizer[0] tags "\"\""
par TwoMasterClocksTreeGptpShowcase.visualizer.physicalEnvironmentVisualizer[0] physicalEnvironmentModule "\"physicalEnvironment\""
par TwoMasterClocksTreeGptpShowcase.visualizer.physicalEnvironmentVisualizer[0] displayObjects true
par TwoMasterClocksTreeGptpShowcase.visualizer.physicalEnvironmentVisualizer[0] zIndex 0
par TwoMasterClocksTreeGptpShowcase.visualizer.networkNodeVisualizer[0] typename "\"inet.visualizer.canvas.scene.NetworkNodeCanvasVisualizer\""
par TwoMasterClocksTreeGptpShowcase.visualizer.networkNodeVisualizer[0] visualizationTargetModule "\"^.^\""
par TwoMasterClocksTreeGptpShowcase.visualizer.networkNodeVisualizer[0] visualizationSubjectModule "\"^.^\""
par TwoMasterClocksTreeGptpShowcase.visualizer.networkNodeVisualizer[0] tags "\"\""
par TwoMasterClocksTreeGptpShowcase.visualizer.networkNodeVisualizer[0] nodeFilter "\"*\""
attr mutable ""
par TwoMasterClocksTreeGptpShowcase.visualizer.networkNodeVisualizer[0] annotationSpacing 4
par TwoMasterClocksTreeGptpShowcase.visualizer.networkNodeVisualizer[0] placementPenalty 10
par TwoMasterClocksTreeGptpShowcase.visualizer.networkNodeVisualizer[0] zIndex 0
par TwoMasterClocksTreeGptpShowcase.visualizer.networkConnectionVisualizer[0] typename "\"inet.visualizer.canvas.scene.NetworkConnectionCanvasVisualizer\""
par TwoMasterClocksTreeGptpShowcase.visualizer.networkConnectionVisualizer[0] visualizationTargetModule "\"^.^\""
par TwoMasterClocksTreeGptpShowcase.visualizer.networkConnectionVisualizer[0] visualizationSubjectModule "\"^.^\""
par TwoMasterClocksTreeGptpShowcase.visualizer.networkConnectionVisualizer[0] tags "\"\""
par TwoMasterClocksTreeGptpShowcase.visualizer.networkConnectionVisualizer[0] displayNetworkConnections true
par TwoMasterClocksTreeGptpShowcase.visualizer.networkConnectionVisualizer[0] nodeFilter "\"\""
attr mutable ""
par TwoMasterClocksTreeGptpShowcase.visualizer.networkConnectionVisualizer[0] lineColor "\"black\""
par TwoMasterClocksTreeGptpShowcase.visualizer.networkConnectionVisualizer[0] lineStyle "\"solid\""
par TwoMasterClocksTreeGptpShowcase.visualizer.networkConnectionVisualizer[0] lineWidth 1
par TwoMasterClocksTreeGptpShowcase.visualizer.networkConnectionVisualizer[0] zIndex 0
par TwoMasterClocksTreeGptpShowcase.visualizer.mobilityVisualizer[0] typename "\"inet.visualizer.canvas.mobility.MobilityCanvasVisualizer\""
par TwoMasterClocksTreeGptpShowcase.visualizer.mobilityVisualizer[0] visualizationTargetModule "\"^.^\""
par TwoMasterClocksTreeGptpShowcase.visualizer.mobilityVisualizer[0] visualizationSubjectModule "\"^.^\""
par TwoMasterClocksTreeGptpShowcase.visualizer.mobilityVisualizer[0] tags "\"\""
par TwoMasterClocksTreeGptpShowcase.visualizer.mobilityVisualizer[0] networkNodeVisualizerModule "\"TwoMasterClocksTreeGptpShowcase.visualizer.networkNodeVisualizer[0]\""
par TwoMasterClocksTreeGptpShowcase.visualizer.mobilityVisualizer[0] displayMobility true
par TwoMasterClocksTreeGptpShowcase.visualizer.mobilityVisualizer[0] animationSpeed 0
par TwoMasterClocksTreeGptpShowcase.visualizer.mobilityVisualizer[0] moduleFilter "\"**.mobility\""
attr mutable ""
par TwoMasterClocksTreeGptpShowcase.visualizer.mobilityVisualizer[0] displayPositions false
par TwoMasterClocksTreeGptpShowcase.visualizer.mobilityVisualizer[0] positionCircleRadius 4
par TwoMasterClocksTreeGptpShowcase.visualizer.mobilityVisualizer[0] positionCircleLineWidth 1
par TwoMasterClocksTreeGptpShowcase.visualizer.mobilityVisualizer[0] positionCircleLineColor "\"dark\""
par TwoMasterClocksTreeGptpShowcase.visualizer.mobilityVisualizer[0] positionCircleFillColor "\"dark\""
par TwoMasterClocksTreeGptpShowcase.visualizer.mobilityVisualizer[0] displayOrientations false
par TwoMasterClocksTreeGptpShowcase.visualizer.mobilityVisualizer[0] orientationPieRadius 32
par TwoMasterClocksTreeGptpShowcase.visualizer.mobilityVisualizer[0] orientationPieSize 0.2
par TwoMasterClocksTreeGptpShowcase.visualizer.mobilityVisualizer[0] orientationPieOpacity 0.25
par TwoMasterClocksTreeGptpShowcase.visualizer.mobilityVisualizer[0] orientationLineColor "\"black\""
par TwoMasterClocksTreeGptpShowcase.visualizer.mobilityVisualizer[0] orientationLineStyle "\"solid\""
par TwoMasterClocksTreeGptpShowcase.visualizer.mobilityVisualizer[0] orientationLineWidth 1
par TwoMasterClocksTreeGptpShowcase.visualizer.mobilityVisualizer[0] orientationFillColor "\"blue\""
par TwoMasterClocksTreeGptpShowcase.visualizer.mobilityVisualizer[0] displayVelocities false
par TwoMasterClocksTreeGptpShowcase.visualizer.mobilityVisualizer[0] velocityArrowScale 1
par TwoMasterClocksTreeGptpShowcase.visualizer.mobilityVisualizer[0] velocityLineColor "\"black\""
par TwoMasterClocksTreeGptpShowcase.visualizer.mobilityVisualizer[0] velocityLineStyle "\"solid\""
par TwoMasterClocksTreeGptpShowcase.visualizer.mobilityVisualizer[0] velocityLineWidth 1
par TwoMasterClocksTreeGptpShowcase.visualizer.mobilityVisualizer[0] displayMovementTrails false
par TwoMasterClocksTreeGptpShowcase.visualizer.mobilityVisualizer[0] movementTrailLineColor "\"dark\""
par TwoMasterClocksTreeGptpShowcase.visualizer.mobilityVisualizer[0] movementTrailLineStyle "\"solid\""
par TwoMasterClocksTreeGptpShowcase.visualizer.mobilityVisualizer[0] movementTrailLineWidth 1
par TwoMasterClocksTreeGptpShowcase.visualizer.mobilityVisualizer[0] trailLength 100
par TwoMasterClocksTreeGptpShowcase.visualizer.mobilityVisualizer[0] zIndex 0
par TwoMasterClocksTreeGptpShowcase.visualizer.statisticVisualizer[0] typename "\"inet.visualizer.canvas.common.StatisticCanvasVisualizer\""
par TwoMasterClocksTreeGptpShowcase.visualizer.statisticVisualizer[0] visualizationTargetModule "\"^.^\""
par TwoMasterClocksTreeGptpShowcase.visualizer.statisticVisualizer[0] visualizationSubjectModule "\"^.^\""
par TwoMasterClocksTreeGptpShowcase.visualizer.statisticVisualizer[0] tags "\"\""
par TwoMasterClocksTreeGptpShowcase.visualizer.statisticVisualizer[0] networkNodeVisualizerModule "\"TwoMasterClocksTreeGptpShowcase.visualizer.networkNodeVisualizer[0]\""
par TwoMasterClocksTreeGptpShowcase.visualizer.statisticVisualizer[0] displayStatistics true
par TwoMasterClocksTreeGptpShowcase.visualizer.statisticVisualizer[0] signalName "\"\""
par TwoMasterClocksTreeGptpShowcase.visualizer.statisticVisualizer[0] statisticName "\"\""
par TwoMasterClocksTreeGptpShowcase.visualizer.statisticVisualizer[0] statisticUnit "\"\""
par TwoMasterClocksTreeGptpShowcase.visualizer.statisticVisualizer[0] statisticExpression "\"\""
par TwoMasterClocksTreeGptpShowcase.visualizer.statisticVisualizer[0] sourceFilter "\"**\""
attr mutable ""
par TwoMasterClocksTreeGptpShowcase.visualizer.statisticVisualizer[0] format "\"%n: %v %u\""
attr mutable ""
par TwoMasterClocksTreeGptpShowcase.visualizer.statisticVisualizer[0] unit "\"\""
par TwoMasterClocksTreeGptpShowcase.visualizer.statisticVisualizer[0] font "\"<default>\""
par TwoMasterClocksTreeGptpShowcase.visualizer.statisticVisualizer[0] textColor "\"black\""
par TwoMasterClocksTreeGptpShowcase.visualizer.statisticVisualizer[0] backgroundColor "\"white\""
par TwoMasterClocksTreeGptpShowcase.visualizer.statisticVisualizer[0] opacity 1
par TwoMasterClocksTreeGptpShowcase.visualizer.statisticVisualizer[0] placementHint "\"top\""
par TwoMasterClocksTreeGptpShowcase.visualizer.statisticVisualizer[0] placementPriority 0
par TwoMasterClocksTreeGptpShowcase.visualizer.statisticVisualizer[0] zIndex 10
par TwoMasterClocksTreeGptpShowcase.visualizer.statisticVisualizer[0] propertyName "\"\""
par TwoMasterClocksTreeGptpShowcase.visualizer.statisticVisualizer[0] propertyIndex "\"\""
par TwoMasterClocksTreeGptpShowcase.visualizer.infoVisualizer[0] typename "\"inet.visualizer.canvas.common.InfoCanvasVisualizer\""
par TwoMasterClocksTreeGptpShowcase.visualizer.infoVisualizer[0] visualizationTargetModule "\"^.^\""
par TwoMasterClocksTreeGptpShowcase.visualizer.infoVisualizer[0] visualizationSubjectModule "\"^.^\""
par TwoMasterClocksTreeGptpShowcase.visualizer.infoVisualizer[0] tags "\"\""
par TwoMasterClocksTreeGptpShowcase.visualizer.infoVisualizer[0] networkNodeVisualizerModule "\"TwoMasterClocksTreeGptpShowcase.visualizer.networkNodeVisualizer[0]\""
par TwoMasterClocksTreeGptpShowcase.visualizer.infoVisualizer[0] displayInfos true
par TwoMasterClocksTreeGptpShowcase.visualizer.infoVisualizer[0] modules "\"*.tsnDevice*.*.clock[0]\""
attr mutable ""
par TwoMasterClocksTreeGptpShowcase.visualizer.infoVisualizer[0] format "\"%t\""
attr mutable ""
par TwoMasterClocksTreeGptpShowcase.visualizer.infoVisualizer[0] font "\"<default>\""
par TwoMasterClocksTreeGptpShowcase.visualizer.infoVisualizer[0] textColor "\"blue\""
par TwoMasterClocksTreeGptpShowcase.visualizer.infoVisualizer[0] backgroundColor "\"white\""
par TwoMasterClocksTreeGptpShowcase.visualizer.infoVisualizer[0] opacity 1
par TwoMasterClocksTreeGptpShowcase.visualizer.infoVisualizer[0] placementHint "\"bottom\""
par TwoMasterClocksTreeGptpShowcase.visualizer.infoVisualizer[0] placementPriority 0
par TwoMasterClocksTreeGptpShowcase.visualizer.infoVisualizer[0] zIndex 10
par TwoMasterClocksTreeGptpShowcase.visualizer.infoVisualizer[1] typename "\"inet.visualizer.canvas.common.InfoCanvasVisualizer\""
par TwoMasterClocksTreeGptpShowcase.visualizer.infoVisualizer[1] visualizationTargetModule "\"^.^\""
par TwoMasterClocksTreeGptpShowcase.visualizer.infoVisualizer[1] visualizationSubjectModule "\"^.^\""
par TwoMasterClocksTreeGptpShowcase.visualizer.infoVisualizer[1] tags "\"\""
par TwoMasterClocksTreeGptpShowcase.visualizer.infoVisualizer[1] networkNodeVisualizerModule "\"TwoMasterClocksTreeGptpShowcase.visualizer.networkNodeVisualizer[0]\""
par TwoMasterClocksTreeGptpShowcase.visualizer.infoVisualizer[1] displayInfos true
par TwoMasterClocksTreeGptpShowcase.visualizer.infoVisualizer[1] modules "\"*.tsnDevice*.*.clock[1]\""
attr mutable ""
par TwoMasterClocksTreeGptpShowcase.visualizer.infoVisualizer[1] format "\"%t\""
attr mutable ""
par TwoMasterClocksTreeGptpShowcase.visualizer.infoVisualizer[1] font "\"<default>\""
par TwoMasterClocksTreeGptpShowcase.visualizer.infoVisualizer[1] textColor "\"red\""
par TwoMasterClocksTreeGptpShowcase.visualizer.infoVisualizer[1] backgroundColor "\"white\""
par TwoMasterClocksTreeGptpShowcase.visualizer.infoVisualizer[1] opacity 1
par TwoMasterClocksTreeGptpShowcase.visualizer.infoVisualizer[1] placementHint "\"bottom\""
par TwoMasterClocksTreeGptpShowcase.visualizer.infoVisualizer[1] placementPriority 0
par TwoMasterClocksTreeGptpShowcase.visualizer.infoVisualizer[1] zIndex 10
par TwoMasterClocksTreeGptpShowcase.visualizer.infoVisualizer[2] typename "\"inet.visualizer.canvas.common.InfoCanvasVisualizer\""
par TwoMasterClocksTreeGptpShowcase.visualizer.infoVisualizer[2] visualizationTargetModule "\"^.^\""
par TwoMasterClocksTreeGptpShowcase.visualizer.infoVisualizer[2] visualizationSubjectModule "\"^.^\""
par TwoMasterClocksTreeGptpShowcase.visualizer.infoVisualizer[2] tags "\"\""
par TwoMasterClocksTreeGptpShowcase.visualizer.infoVisualizer[2] networkNodeVisualizerModule "\"TwoMasterClocksTreeGptpShowcase.visualizer.networkNodeVisualizer[0]\""
par TwoMasterClocksTreeGptpShowcase.visualizer.infoVisualizer[2] displayInfos true
par TwoMasterClocksTreeGptpShowcase.visualizer.infoVisualizer[2] modules "\"*.tsnClock1.clock\""
attr mutable ""
par TwoMasterClocksTreeGptpShowcase.visualizer.infoVisualizer[2] format "\"%t\""
attr mutable ""
par TwoMasterClocksTreeGptpShowcase.visualizer.infoVisualizer[2] font "\"<default>\""
par TwoMasterClocksTreeGptpShowcase.visualizer.infoVisualizer[2] textColor "\"blue\""
par TwoMasterClocksTreeGptpShowcase.visualizer.infoVisualizer[2] backgroundColor "\"white\""
par TwoMasterClocksTreeGptpShowcase.visualizer.infoVisualizer[2] opacity 1
par TwoMasterClocksTreeGptpShowcase.visualizer.infoVisualizer[2] placementHint "\"top\""
par TwoMasterClocksTreeGptpShowcase.visualizer.infoVisualizer[2] placementPriority 0
par TwoMasterClocksTreeGptpShowcase.visualizer.infoVisualizer[2] zIndex 10
par TwoMasterClocksTreeGptpShowcase.visualizer.infoVisualizer[3] typename "\"inet.visualizer.canvas.common.InfoCanvasVisualizer\""
par TwoMasterClocksTreeGptpShowcase.visualizer.infoVisualizer[3] visualizationTargetModule "\"^.^\""
par TwoMasterClocksTreeGptpShowcase.visualizer.infoVisualizer[3] visualizationSubjectModule "\"^.^\""
par TwoMasterClocksTreeGptpShowcase.visualizer.infoVisualizer[3] tags "\"\""
par TwoMasterClocksTreeGptpShowcase.visualizer.infoVisualizer[3] networkNodeVisualizerModule "\"TwoMasterClocksTreeGptpShowcase.visualizer.networkNodeVisualizer[0]\""
par TwoMasterClocksTreeGptpShowcase.visualizer.infoVisualizer[3] displayInfos true
par TwoMasterClocksTreeGptpShowcase.visualizer.infoVisualizer[3] modules "\"*.tsnClock2.clock\""
attr mutable ""
par TwoMasterClocksTreeGptpShowcase.visualizer.infoVisualizer[3] format "\"%t\""
attr mutable ""
par TwoMasterClocksTreeGptpShowcase.visualizer.infoVisualizer[3] font "\"<default>\""
par TwoMasterClocksTreeGptpShowcase.visualizer.infoVisualizer[3] textColor "\"red\""
par TwoMasterClocksTreeGptpShowcase.visualizer.infoVisualizer[3] backgroundColor "\"white\""
par TwoMasterClocksTreeGptpShowcase.visualizer.infoVisualizer[3] opacity 1
par TwoMasterClocksTreeGptpShowcase.visualizer.infoVisualizer[3] placementHint "\"top\""
par TwoMasterClocksTreeGptpShowcase.visualizer.infoVisualizer[3] placementPriority 0
par TwoMasterClocksTreeGptpShowcase.visualizer.infoVisualizer[3] zIndex 10
par TwoMasterClocksTreeGptpShowcase.visualizer.infoVisualizer[4] typename "\"inet.visualizer.canvas.common.InfoCanvasVisualizer\""
par TwoMasterClocksTreeGptpShowcase.visualizer.infoVisualizer[4] visualizationTargetModule "\"^.^\""
par TwoMasterClocksTreeGptpShowcase.visualizer.infoVisualizer[4] visualizationSubjectModule "\"^.^\""
par TwoMasterClocksTreeGptpShowcase.visualizer.infoVisualizer[4] tags "\"\""
par TwoMasterClocksTreeGptpShowcase.visualizer.infoVisualizer[4] networkNodeVisualizerModule "\"TwoMasterClocksTreeGptpShowcase.visualizer.networkNodeVisualizer[0]\""
par TwoMasterClocksTreeGptpShowcase.visualizer.infoVisualizer[4] displayInfos true
par TwoMasterClocksTreeGptpShowcase.visualizer.infoVisualizer[4] modules "\"*.tsnSwitch1.*.clock[0]\""
attr mutable ""
par TwoMasterClocksTreeGptpShowcase.visualizer.infoVisualizer[4] format "\"%t\""
attr mutable ""
par TwoMasterClocksTreeGptpShowcase.visualizer.infoVisualizer[4] font "\"<default>\""
par TwoMasterClocksTreeGptpShowcase.visualizer.infoVisualizer[4] textColor "\"blue\""
par TwoMasterClocksTreeGptpShowcase.visualizer.infoVisualizer[4] backgroundColor "\"white\""
par TwoMasterClocksTreeGptpShowcase.visualizer.infoVisualizer[4] opacity 1
par TwoMasterClocksTreeGptpShowcase.visualizer.infoVisualizer[4] placementHint "\"topLeft\""
par TwoMasterClocksTreeGptpShowcase.visualizer.infoVisualizer[4] placementPriority 0
par TwoMasterClocksTreeGptpShowcase.visualizer.infoVisualizer[4] zIndex 10
par TwoMasterClocksTreeGptpShowcase.visualizer.infoVisualizer[5] typename "\"inet.visualizer.canvas.common.InfoCanvasVisualizer\""
par TwoMasterClocksTreeGptpShowcase.visualizer.infoVisualizer[5] visualizationTargetModule "\"^.^\""
par TwoMasterClocksTreeGptpShowcase.visualizer.infoVisualizer[5] visualizationSubjectModule "\"^.^\""
par TwoMasterClocksTreeGptpShowcase.visualizer.infoVisualizer[5] tags "\"\""
par TwoMasterClocksTreeGptpShowcase.visualizer.infoVisualizer[5] networkNodeVisualizerModule "\"TwoMasterClocksTreeGptpShowcase.visualizer.networkNodeVisualizer[0]\""
par TwoMasterClocksTreeGptpShowcase.visualizer.infoVisualizer[5] displayInfos true
par TwoMasterClocksTreeGptpShowcase.visualizer.infoVisualizer[5] modules "\"*.tsnSwitch1.*.clock[1]\""
attr mutable ""
par TwoMasterClocksTreeGptpShowcase.visualizer.infoVisualizer[5] format "\"%t\""
attr mutable ""
par TwoMasterClocksTreeGptpShowcase.visualizer.infoVisualizer[5] font "\"<default>\""
par TwoMasterClocksTreeGptpShowcase.visualizer.infoVisualizer[5] textColor "\"red\""
par TwoMasterClocksTreeGptpShowcase.visualizer.infoVisualizer[5] backgroundColor "\"white\""
par TwoMasterClocksTreeGptpShowcase.visualizer.infoVisualizer[5] opacity 1
par TwoMasterClocksTreeGptpShowcase.visualizer.infoVisualizer[5] placementHint "\"topLeft\""
par TwoMasterClocksTreeGptpShowcase.visualizer.infoVisualizer[5] placementPriority 0
par TwoMasterClocksTreeGptpShowcase.visualizer.infoVisualizer[5] zIndex 10
par TwoMasterClocksTreeGptpShowcase.visualizer.infoVisualizer[6] typename "\"inet.visualizer.canvas.common.InfoCanvasVisualizer\""
par TwoMasterClocksTreeGptpShowcase.visualizer.infoVisualizer[6] visualizationTargetModule "\"^.^\""
par TwoMasterClocksTreeGptpShowcase.visualizer.infoVisualizer[6] visualizationSubjectModule "\"^.^\""
par TwoMasterClocksTreeGptpShowcase.visualizer.infoVisualizer[6] tags "\"\""
par TwoMasterClocksTreeGptpShowcase.visualizer.infoVisualizer[6] networkNodeVisualizerModule "\"TwoMasterClocksTreeGptpShowcase.visualizer.networkNodeVisualizer[0]\""
par TwoMasterClocksTreeGptpShowcase.visualizer.infoVisualizer[6] displayInfos true
par TwoMasterClocksTreeGptpShowcase.visualizer.infoVisualizer[6] modules "\"*.tsnSwitch2.*.clock[0]\""
attr mutable ""
par TwoMasterClocksTreeGptpShowcase.visualizer.infoVisualizer[6] format "\"%t\""
attr mutable ""
par TwoMasterClocksTreeGptpShowcase.visualizer.infoVisualizer[6] font "\"<default>\""
par TwoMasterClocksTreeGptpShowcase.visualizer.infoVisualizer[6] textColor "\"blue\""
par TwoMasterClocksTreeGptpShowcase.visualizer.infoVisualizer[6] backgroundColor "\"white\""
par TwoMasterClocksTreeGptpShowcase.visualizer.infoVisualizer[6] opacity 1
par TwoMasterClocksTreeGptpShowcase.visualizer.infoVisualizer[6] placementHint "\"topRight\""
par TwoMasterClocksTreeGptpShowcase.visualizer.infoVisualizer[6] placementPriority 0
par TwoMasterClocksTreeGptpShowcase.visualizer.infoVisualizer[6] zIndex 10
par TwoMasterClocksTreeGptpShowcase.visualizer.infoVisualizer[7] typename "\"inet.visualizer.canvas.common.InfoCanvasVisualizer\""
par TwoMasterClocksTreeGptpShowcase.visualizer.infoVisualizer[7] visualizationTargetModule "\"^.^\""
par TwoMasterClocksTreeGptpShowcase.visualizer.infoVisualizer[7] visualizationSubjectModule "\"^.^\""
par TwoMasterClocksTreeGptpShowcase.visualizer.infoVisualizer[7] tags "\"\""
par TwoMasterClocksTreeGptpShowcase.visualizer.infoVisualizer[7] networkNodeVisualizerModule "\"TwoMasterClocksTreeGptpShowcase.visualizer.networkNodeVisualizer[0]\""
par TwoMasterClocksTreeGptpShowcase.visualizer.infoVisualizer[7] displayInfos true
par TwoMasterClocksTreeGptpShowcase.visualizer.infoVisualizer[7] modules "\"*.tsnSwitch2.*.clock[1]\""
attr mutable ""
par TwoMasterClocksTreeGptpShowcase.visualizer.infoVisualizer[7] format "\"%t\""
attr mutable ""
par TwoMasterClocksTreeGptpShowcase.visualizer.infoVisualizer[7] font "\"<default>\""
par TwoMasterClocksTreeGptpShowcase.visualizer.infoVisualizer[7] textColor "\"red\""
par TwoMasterClocksTreeGptpShowcase.visualizer.infoVisualizer[7] backgroundColor "\"white\""
par TwoMasterClocksTreeGptpShowcase.visualizer.infoVisualizer[7] opacity 1
par TwoMasterClocksTreeGptpShowcase.visualizer.infoVisualizer[7] placementHint "\"topRight\""
par TwoMasterClocksTreeGptpShowcase.visualizer.infoVisualizer[7] placementPriority 0
par TwoMasterClocksTreeGptpShowcase.visualizer.infoVisualizer[7] zIndex 10
par TwoMasterClocksTreeGptpShowcase.visualizer.energyStorageVisualizer[0] typename "\"inet.visualizer.canvas.power.EnergyStorageCanvasVisualizer\""
par TwoMasterClocksTreeGptpShowcase.visualizer.energyStorageVisualizer[0] visualizationTargetModule "\"^.^\""
par TwoMasterClocksTreeGptpShowcase.visualizer.energyStorageVisualizer[0] visualizationSubjectModule "\"^.^\""
par TwoMasterClocksTreeGptpShowcase.visualizer.energyStorageVisualizer[0] tags "\"\""
par TwoMasterClocksTreeGptpShowcase.visualizer.energyStorageVisualizer[0] networkNodeVisualizerModule "\"TwoMasterClocksTreeGptpShowcase.visualizer.networkNodeVisualizer[0]\""
par TwoMasterClocksTreeGptpShowcase.visualizer.energyStorageVisualizer[0] displayEnergyStorages false
par TwoMasterClocksTreeGptpShowcase.visualizer.energyStorageVisualizer[0] energyStorageFilter "\"**\""
par TwoMasterClocksTreeGptpShowcase.visualizer.energyStorageVisualizer[0] color "\"green\""
par TwoMasterClocksTreeGptpShowcase.visualizer.energyStorageVisualizer[0] width 8
par TwoMasterClocksTreeGptpShowcase.visualizer.energyStorageVisualizer[0] height 24
par TwoMasterClocksTreeGptpShowcase.visualizer.energyStorageVisualizer[0] spacing 2
par TwoMasterClocksTreeGptpShowcase.visualizer.energyStorageVisualizer[0] placementHint "\"right\""
par TwoMasterClocksTreeGptpShowcase.visualizer.energyStorageVisualizer[0] placementPriority 0
par TwoMasterClocksTreeGptpShowcase.visualizer.energyStorageVisualizer[0] zIndex 10
par TwoMasterClocksTreeGptpShowcase.visualizer.mediumVisualizer[0] typename "\"inet.visualizer.canvas.physicallayer.MediumCanvasVisualizer\""
par TwoMasterClocksTreeGptpShowcase.visualizer.mediumVisualizer[0] visualizationTargetModule "\"^.^\""
par TwoMasterClocksTreeGptpShowcase.visualizer.mediumVisualizer[0] visualizationSubjectModule "\"^.^\""
par TwoMasterClocksTreeGptpShowcase.visualizer.mediumVisualizer[0] tags "\"\""
par TwoMasterClocksTreeGptpShowcase.visualizer.mediumVisualizer[0] mediumModule "\"radioMedium\""
par TwoMasterClocksTreeGptpShowcase.visualizer.mediumVisualizer[0] networkNodeVisualizerModule "\"TwoMasterClocksTreeGptpShowcase.visualizer.networkNodeVisualizer[0]\""
par TwoMasterClocksTreeGptpShowcase.visualizer.mediumVisualizer[0] nodeFilter "\"*\""
attr mutable ""
par TwoMasterClocksTreeGptpShowcase.visualizer.mediumVisualizer[0] interfaceFilter "\"*\""
attr mutable ""
par TwoMasterClocksTreeGptpShowcase.visualizer.mediumVisualizer[0] packetFilter "(omnetpp::cValueHolder)holder: \"*\""
attr mutable ""
par TwoMasterClocksTreeGptpShowcase.visualizer.mediumVisualizer[0] displaySignals false
par TwoMasterClocksTreeGptpShowcase.visualizer.mediumVisualizer[0] signalColor "\"dark\""
par TwoMasterClocksTreeGptpShowcase.visualizer.mediumVisualizer[0] signalPropagationAnimationSpeed "nan "
attr mutable ""
par TwoMasterClocksTreeGptpShowcase.visualizer.mediumVisualizer[0] signalPropagationAnimationTime 1s
attr unit s
par TwoMasterClocksTreeGptpShowcase.visualizer.mediumVisualizer[0] signalPropagationAdditionalTime 0s
attr unit s
par TwoMasterClocksTreeGptpShowcase.visualizer.mediumVisualizer[0] signalTransmissionAnimationSpeed "nan "
attr mutable ""
par TwoMasterClocksTreeGptpShowcase.visualizer.mediumVisualizer[0] signalTransmissionAnimationTime 1s
attr unit s
par TwoMasterClocksTreeGptpShowcase.visualizer.mediumVisualizer[0] signalAnimationSpeedChangeTimeMode "\"realTime\""
attr enum realTime,animationTime,simulationTime
par TwoMasterClocksTreeGptpShowcase.visualizer.mediumVisualizer[0] signalAnimationSpeedChangeTime 1s
attr unit s
par TwoMasterClocksTreeGptpShowcase.visualizer.mediumVisualizer[0] displaySignalDepartures false
par TwoMasterClocksTreeGptpShowcase.visualizer.mediumVisualizer[0] signalDepartureImage "\"misc/signal_departure.png\""
par TwoMasterClocksTreeGptpShowcase.visualizer.mediumVisualizer[0] signalDeparturePlacementHint "\"topCenter\""
par TwoMasterClocksTreeGptpShowcase.visualizer.mediumVisualizer[0] signalDeparturePlacementPriority 1
par TwoMasterClocksTreeGptpShowcase.visualizer.mediumVisualizer[0] displaySignalArrivals false
par TwoMasterClocksTreeGptpShowcase.visualizer.mediumVisualizer[0] signalArrivalImage "\"misc/signal_arrival.png\""
par TwoMasterClocksTreeGptpShowcase.visualizer.mediumVisualizer[0] signalArrivalPlacementHint "\"topCenter\""
par TwoMasterClocksTreeGptpShowcase.visualizer.mediumVisualizer[0] signalArrivalPlacementPriority -1
par TwoMasterClocksTreeGptpShowcase.visualizer.mediumVisualizer[0] displayCommunicationRanges false
par TwoMasterClocksTreeGptpShowcase.visualizer.mediumVisualizer[0] communicationRangeLineColor "\"blue\""
par TwoMasterClocksTreeGptpShowcase.visualizer.mediumVisualizer[0] communicationRangeLineStyle "\"solid\""
par TwoMasterClocksTreeGptpShowcase.visualizer.mediumVisualizer[0] communicationRangeLineWidth 1
par TwoMasterClocksTreeGptpShowcase.visualizer.mediumVisualizer[0] displayInterferenceRanges false
par TwoMasterClocksTreeGptpShowcase.visualizer.mediumVisualizer[0] interferenceRangeLineColor "\"gray\""
par TwoMasterClocksTreeGptpShowcase.visualizer.mediumVisualizer[0] interferenceRangeLineStyle "\"solid\""
par TwoMasterClocksTreeGptpShowcase.visualizer.mediumVisualizer[0] interferenceRangeLineWidth 1
par TwoMasterClocksTreeGptpShowcase.visualizer.mediumVisualizer[0] autoPowerAxis true
par TwoMasterClocksTreeGptpShowcase.visualizer.mediumVisualizer[0] signalMinPower "inf dBmW"
attr unit dBmW
par TwoMasterClocksTreeGptpShowcase.visualizer.mediumVisualizer[0] signalMaxPower 0dBmW
attr unit dBmW
par TwoMasterClocksTreeGptpShowcase.visualizer.mediumVisualizer[0] signalMinPowerDensity "inf dBmWpMHz"
attr unit dBmWpMHz
par TwoMasterClocksTreeGptpShowcase.visualizer.mediumVisualizer[0] signalMaxPowerDensity "-inf dBmWpMHz"
attr unit dBmWpMHz
par TwoMasterClocksTreeGptpShowcase.visualizer.mediumVisualizer[0] autoTimeAxis true
par TwoMasterClocksTreeGptpShowcase.visualizer.mediumVisualizer[0] signalMinTime 0s
attr unit s
par TwoMasterClocksTreeGptpShowcase.visualizer.mediumVisualizer[0] signalMaxTime 0s
attr unit s
par TwoMasterClocksTreeGptpShowcase.visualizer.mediumVisualizer[0] autoFrequencyAxis true
par TwoMasterClocksTreeGptpShowcase.visualizer.mediumVisualizer[0] signalMinFrequency "inf Hz"
attr unit Hz
par TwoMasterClocksTreeGptpShowcase.visualizer.mediumVisualizer[0] signalMaxFrequency "-inf Hz"
attr unit Hz
par TwoMasterClocksTreeGptpShowcase.visualizer.mediumVisualizer[0] displayMainPowerDensityMap false
par TwoMasterClocksTreeGptpShowcase.visualizer.mediumVisualizer[0] mainPowerDensityMapPixmapDensity 1
par TwoMasterClocksTreeGptpShowcase.visualizer.mediumVisualizer[0] mainPowerDensityMapMinX 0
par TwoMasterClocksTreeGptpShowcase.visualizer.mediumVisualizer[0] mainPowerDensityMapMaxX "nan "
par TwoMasterClocksTreeGptpShowcase.visualizer.mediumVisualizer[0] mainPowerDensityMapMinY 0
par TwoMasterClocksTreeGptpShowcase.visualizer.mediumVisualizer[0] mainPowerDensityMapMaxY "nan "
par TwoMasterClocksTreeGptpShowcase.visualizer.mediumVisualizer[0] mainPowerDensityMapZ 0
par TwoMasterClocksTreeGptpShowcase.visualizer.mediumVisualizer[0] mainPowerDensityMapFigureXTickCount 3
par TwoMasterClocksTreeGptpShowcase.visualizer.mediumVisualizer[0] mainPowerDensityMapFigureYTickCount 3
par TwoMasterClocksTreeGptpShowcase.visualizer.mediumVisualizer[0] displayPowerDensityMaps false
par TwoMasterClocksTreeGptpShowcase.visualizer.mediumVisualizer[0] powerDensityMapMode "\"auto\""
attr enum total,signal,auto
par TwoMasterClocksTreeGptpShowcase.visualizer.mediumVisualizer[0] powerDensityMapPixelMode "\"mean\""
attr enum sample,partition,mean
par TwoMasterClocksTreeGptpShowcase.visualizer.mediumVisualizer[0] powerDensityMapApproximationSize 10
par TwoMasterClocksTreeGptpShowcase.visualizer.mediumVisualizer[0] powerDensityMapCenterFrequency "nan Hz"
attr mutable ""
attr unit Hz
par TwoMasterClocksTreeGptpShowcase.visualizer.mediumVisualizer[0] powerDensityMapBandwidth 0Hz
attr mutable ""
attr unit Hz
par TwoMasterClocksTreeGptpShowcase.visualizer.mediumVisualizer[0] powerDensityMapFigureWidth 200
par TwoMasterClocksTreeGptpShowcase.visualizer.mediumVisualizer[0] powerDensityMapFigureHeight 120
par TwoMasterClocksTreeGptpShowcase.visualizer.mediumVisualizer[0] powerDensityMapPixmapWidth 200
par TwoMasterClocksTreeGptpShowcase.visualizer.mediumVisualizer[0] powerDensityMapPixmapHeight 120
par TwoMasterClocksTreeGptpShowcase.visualizer.mediumVisualizer[0] powerDensityMapZ 0
par TwoMasterClocksTreeGptpShowcase.visualizer.mediumVisualizer[0] powerDensityMapFigureXTickCount 3
par TwoMasterClocksTreeGptpShowcase.visualizer.mediumVisualizer[0] powerDensityMapFigureYTickCount 3
par TwoMasterClocksTreeGptpShowcase.visualizer.mediumVisualizer[0] displaySpectrums false
par TwoMasterClocksTreeGptpShowcase.visualizer.mediumVisualizer[0] spectrumMode "\"auto\""
attr enum total,signal,auto
par TwoMasterClocksTreeGptpShowcase.visualizer.mediumVisualizer[0] spectrumFigureWidth 200
par TwoMasterClocksTreeGptpShowcase.visualizer.mediumVisualizer[0] spectrumFigureHeight 120
par TwoMasterClocksTreeGptpShowcase.visualizer.mediumVisualizer[0] spectrumFigureXTickCount 3
par TwoMasterClocksTreeGptpShowcase.visualizer.mediumVisualizer[0] spectrumFigureYTickCount 5
par TwoMasterClocksTreeGptpShowcase.visualizer.mediumVisualizer[0] spectrumFigureInterpolationSize 5
par TwoMasterClocksTreeGptpShowcase.visualizer.mediumVisualizer[0] spectrumPlacementHint "\"bottomCenter\""
par TwoMasterClocksTreeGptpShowcase.visualizer.mediumVisualizer[0] spectrumPlacementPriority -1
par TwoMasterClocksTreeGptpShowcase.visualizer.mediumVisualizer[0] displaySpectrograms false
par TwoMasterClocksTreeGptpShowcase.visualizer.mediumVisualizer[0] spectrogramMode "\"auto\""
attr enum total,signal,auto
par TwoMasterClocksTreeGptpShowcase.visualizer.mediumVisualizer[0] spectrogramPixelMode "\"mean\""
attr enum sample,partition,mean
par TwoMasterClocksTreeGptpShowcase.visualizer.mediumVisualizer[0] spectrogramFigureWidth 200
par TwoMasterClocksTreeGptpShowcase.visualizer.mediumVisualizer[0] spectrogramFigureHeight 120
par TwoMasterClocksTreeGptpShowcase.visualizer.mediumVisualizer[0] spectrogramPixmapWidth 200
par TwoMasterClocksTreeGptpShowcase.visualizer.mediumVisualizer[0] spectrogramPixmapHeight 120
par TwoMasterClocksTreeGptpShowcase.visualizer.mediumVisualizer[0] spectrogramFigureXTickCount 3
par TwoMasterClocksTreeGptpShowcase.visualizer.mediumVisualizer[0] spectrogramFigureYTickCount 5
par TwoMasterClocksTreeGptpShowcase.visualizer.mediumVisualizer[0] spectrogramPlacementHint "\"bottomCenter\""
par TwoMasterClocksTreeGptpShowcase.visualizer.mediumVisualizer[0] spectrogramPlacementPriority -1
par TwoMasterClocksTreeGptpShowcase.visualizer.mediumVisualizer[0] zIndex 0
par TwoMasterClocksTreeGptpShowcase.visualizer.mediumVisualizer[0] signalShape "\"ring\""
attr enum ring,sphere
par TwoMasterClocksTreeGptpShowcase.visualizer.mediumVisualizer[0] signalOpacity 0.5
par TwoMasterClocksTreeGptpShowcase.visualizer.mediumVisualizer[0] signalRingCount 20
par TwoMasterClocksTreeGptpShowcase.visualizer.mediumVisualizer[0] signalRingSize 50m
attr unit m
par TwoMasterClocksTreeGptpShowcase.visualizer.mediumVisualizer[0] signalFadingDistance 50m
attr unit m
par TwoMasterClocksTreeGptpShowcase.visualizer.mediumVisualizer[0] signalFadingFactor 1.2
par TwoMasterClocksTreeGptpShowcase.visualizer.mediumVisualizer[0] signalWaveCount 20
par TwoMasterClocksTreeGptpShowcase.visualizer.mediumVisualizer[0] signalWaveLength 50m
attr unit m
par TwoMasterClocksTreeGptpShowcase.visualizer.mediumVisualizer[0] signalWaveWidth 10m
attr unit m
par TwoMasterClocksTreeGptpShowcase.visualizer.mediumVisualizer[0] signalWaveFadingAnimationSpeedFactor 1
par TwoMasterClocksTreeGptpShowcase.visualizer.mediumVisualizer[0] displayCommunicationHeat false
par TwoMasterClocksTreeGptpShowcase.visualizer.obstacleLossVisualizer[0] typename "\"inet.visualizer.canvas.physicallayer.TracingObstacleLossCanvasVisualizer\""
par TwoMasterClocksTreeGptpShowcase.visualizer.obstacleLossVisualizer[0] visualizationTargetModule "\"^.^\""
par TwoMasterClocksTreeGptpShowcase.visualizer.obstacleLossVisualizer[0] visualizationSubjectModule "\"^.^\""
par TwoMasterClocksTreeGptpShowcase.visualizer.obstacleLossVisualizer[0] tags "\"\""
par TwoMasterClocksTreeGptpShowcase.visualizer.obstacleLossVisualizer[0] displayIntersections false
par TwoMasterClocksTreeGptpShowcase.visualizer.obstacleLossVisualizer[0] intersectionLineColor "\"red\""
par TwoMasterClocksTreeGptpShowcase.visualizer.obstacleLossVisualizer[0] intersectionLineStyle "\"solid\""
par TwoMasterClocksTreeGptpShowcase.visualizer.obstacleLossVisualizer[0] intersectionLineWidth 1
par TwoMasterClocksTreeGptpShowcase.visualizer.obstacleLossVisualizer[0] displayFaceNormalVectors false
par TwoMasterClocksTreeGptpShowcase.visualizer.obstacleLossVisualizer[0] faceNormalLineColor "\"grey\""
par TwoMasterClocksTreeGptpShowcase.visualizer.obstacleLossVisualizer[0] faceNormalLineStyle "\"solid\""
par TwoMasterClocksTreeGptpShowcase.visualizer.obstacleLossVisualizer[0] faceNormalLineWidth 1
par TwoMasterClocksTreeGptpShowcase.visualizer.obstacleLossVisualizer[0] fadeOutMode "\"realTime\""
attr enum realTime,animationTime,simulationTime
par TwoMasterClocksTreeGptpShowcase.visualizer.obstacleLossVisualizer[0] fadeOutTime 1s
attr unit s
par TwoMasterClocksTreeGptpShowcase.visualizer.obstacleLossVisualizer[0] fadeOutAnimationSpeed 0
par TwoMasterClocksTreeGptpShowcase.visualizer.obstacleLossVisualizer[0] zIndex 0
par TwoMasterClocksTreeGptpShowcase.visualizer.packetDropVisualizer[0] typename "\"inet.visualizer.canvas.common.PacketDropCanvasVisualizer\""
par TwoMasterClocksTreeGptpShowcase.visualizer.packetDropVisualizer[0] visualizationTargetModule "\"^.^\""
par TwoMasterClocksTreeGptpShowcase.visualizer.packetDropVisualizer[0] visualizationSubjectModule "\"^.^\""
par TwoMasterClocksTreeGptpShowcase.visualizer.packetDropVisualizer[0] tags "\"\""
par TwoMasterClocksTreeGptpShowcase.visualizer.packetDropVisualizer[0] displayPacketDrops false
par TwoMasterClocksTreeGptpShowcase.visualizer.packetDropVisualizer[0] nodeFilter "\"*\""
attr mutable ""
par TwoMasterClocksTreeGptpShowcase.visualizer.packetDropVisualizer[0] interfaceFilter "\"*\""
attr mutable ""
par TwoMasterClocksTreeGptpShowcase.visualizer.packetDropVisualizer[0] packetFilter "(omnetpp::cValueHolder)holder: \"*\""
attr mutable ""
par TwoMasterClocksTreeGptpShowcase.visualizer.packetDropVisualizer[0] detailsFilter "\"*\""
attr mutable ""
par TwoMasterClocksTreeGptpShowcase.visualizer.packetDropVisualizer[0] icon "\"msg/packet_s\""
par TwoMasterClocksTreeGptpShowcase.visualizer.packetDropVisualizer[0] iconTintAmount 1
par TwoMasterClocksTreeGptpShowcase.visualizer.packetDropVisualizer[0] iconTintColor "\"dark\""
par TwoMasterClocksTreeGptpShowcase.visualizer.packetDropVisualizer[0] labelFormat "\"%n\""
attr mutable ""
par TwoMasterClocksTreeGptpShowcase.visualizer.packetDropVisualizer[0] labelFont "\"<default>\""
par TwoMasterClocksTreeGptpShowcase.visualizer.packetDropVisualizer[0] labelColor "\"black\""
par TwoMasterClocksTreeGptpShowcase.visualizer.packetDropVisualizer[0] fadeOutMode "\"realTime\""
attr enum realTime,animationTime,simulationTime
par TwoMasterClocksTreeGptpShowcase.visualizer.packetDropVisualizer[0] fadeOutTime 1s
attr unit s
par TwoMasterClocksTreeGptpShowcase.visualizer.packetDropVisualizer[0] fadeOutAnimationSpeed 0
par TwoMasterClocksTreeGptpShowcase.visualizer.packetDropVisualizer[0] zIndex 10
par TwoMasterClocksTreeGptpShowcase.visualizer.packetDropVisualizer[0] dx 32
par TwoMasterClocksTreeGptpShowcase.visualizer.packetDropVisualizer[0] dy 64
par TwoMasterClocksTreeGptpShowcase.visualizer.queueVisualizer[0] typename "\"inet.visualizer.canvas.common.QueueCanvasVisualizer\""
par TwoMasterClocksTreeGptpShowcase.visualizer.queueVisualizer[0] visualizationTargetModule "\"^.^\""
par TwoMasterClocksTreeGptpShowcase.visualizer.queueVisualizer[0] visualizationSubjectModule "\"^.^\""
par TwoMasterClocksTreeGptpShowcase.visualizer.queueVisualizer[0] tags "\"\""
par TwoMasterClocksTreeGptpShowcase.visualizer.queueVisualizer[0] networkNodeVisualizerModule "\"TwoMasterClocksTreeGptpShowcase.visualizer.networkNodeVisualizer[0]\""
par TwoMasterClocksTreeGptpShowcase.visualizer.queueVisualizer[0] displayQueues false
par TwoMasterClocksTreeGptpShowcase.visualizer.queueVisualizer[0] queueFilter "\"**\""
par TwoMasterClocksTreeGptpShowcase.visualizer.queueVisualizer[0] color "\"blue\""
par TwoMasterClocksTreeGptpShowcase.visualizer.queueVisualizer[0] width 8
par TwoMasterClocksTreeGptpShowcase.visualizer.queueVisualizer[0] height 24
par TwoMasterClocksTreeGptpShowcase.visualizer.queueVisualizer[0] spacing 2
par TwoMasterClocksTreeGptpShowcase.visualizer.queueVisualizer[0] placementHint "\"right\""
par TwoMasterClocksTreeGptpShowcase.visualizer.queueVisualizer[0] placementPriority 0
par TwoMasterClocksTreeGptpShowcase.visualizer.queueVisualizer[0] zIndex 10
par TwoMasterClocksTreeGptpShowcase.visualizer.gateScheduleVisualizer[0] typename "\"inet.visualizer.canvas.common.GateScheduleCanvasVisualizer\""
par TwoMasterClocksTreeGptpShowcase.visualizer.gateScheduleVisualizer[0] visualizationTargetModule "\"^.^\""
par TwoMasterClocksTreeGptpShowcase.visualizer.gateScheduleVisualizer[0] visualizationSubjectModule "\"^.^\""
par TwoMasterClocksTreeGptpShowcase.visualizer.gateScheduleVisualizer[0] tags "\"\""
par TwoMasterClocksTreeGptpShowcase.visualizer.gateScheduleVisualizer[0] networkNodeVisualizerModule "\"TwoMasterClocksTreeGptpShowcase.visualizer.networkNodeVisualizer[0]\""
par TwoMasterClocksTreeGptpShowcase.visualizer.gateScheduleVisualizer[0] displayGateSchedules false
par TwoMasterClocksTreeGptpShowcase.visualizer.gateScheduleVisualizer[0] labelFormat "\"%i %D\""
par TwoMasterClocksTreeGptpShowcase.visualizer.gateScheduleVisualizer[0] gateFilter "\"**\""
par TwoMasterClocksTreeGptpShowcase.visualizer.gateScheduleVisualizer[0] width 100
par TwoMasterClocksTreeGptpShowcase.visualizer.gateScheduleVisualizer[0] height 8
par TwoMasterClocksTreeGptpShowcase.visualizer.gateScheduleVisualizer[0] spacing 2
par TwoMasterClocksTreeGptpShowcase.visualizer.gateScheduleVisualizer[0] placementHint "\"right\""
par TwoMasterClocksTreeGptpShowcase.visualizer.gateScheduleVisualizer[0] placementPriority 0
par TwoMasterClocksTreeGptpShowcase.visualizer.gateScheduleVisualizer[0] displayDuration 0s
attr mutable ""
attr unit s
par TwoMasterClocksTreeGptpShowcase.visualizer.gateScheduleVisualizer[0] currentTimePosition 50
par TwoMasterClocksTreeGptpShowcase.visualizer.gateScheduleVisualizer[0] zIndex 10
par TwoMasterClocksTreeGptpShowcase.visualizer.radioVisualizer[0] typename "\"inet.visualizer.canvas.physicallayer.RadioCanvasVisualizer\""
par TwoMasterClocksTreeGptpShowcase.visualizer.radioVisualizer[0] visualizationTargetModule "\"^.^\""
par TwoMasterClocksTreeGptpShowcase.visualizer.radioVisualizer[0] visualizationSubjectModule "\"^.^\""
par TwoMasterClocksTreeGptpShowcase.visualizer.radioVisualizer[0] tags "\"\""
par TwoMasterClocksTreeGptpShowcase.visualizer.radioVisualizer[0] networkNodeVisualizerModule "\"TwoMasterClocksTreeGptpShowcase.visualizer.networkNodeVisualizer[0]\""
par TwoMasterClocksTreeGptpShowcase.visualizer.radioVisualizer[0] displayRadios false
par TwoMasterClocksTreeGptpShowcase.visualizer.radioVisualizer[0] displayRadioMode true
par TwoMasterClocksTreeGptpShowcase.visualizer.radioVisualizer[0] displayReceptionState true
par TwoMasterClocksTreeGptpShowcase.visualizer.radioVisualizer[0] displayTransmissionState true
par TwoMasterClocksTreeGptpShowcase.visualizer.radioVisualizer[0] displayAntennaLobes false
par TwoMasterClocksTreeGptpShowcase.visualizer.radioVisualizer[0] radioFilter "\"**\""
attr mutable ""
par TwoMasterClocksTreeGptpShowcase.visualizer.radioVisualizer[0] radioModeImages "\"block/process_vs block/timer_vs block/wrx_vs block/wtx_vs block/wrxtx_vs block/cogwheel_vs\""
par TwoMasterClocksTreeGptpShowcase.visualizer.radioVisualizer[0] receptionStateImages "\"- - misc/receiving misc/receiving\""
par TwoMasterClocksTreeGptpShowcase.visualizer.radioVisualizer[0] transmissionStateImages "\"- - misc/transmitting\""
par TwoMasterClocksTreeGptpShowcase.visualizer.radioVisualizer[0] width 16
par TwoMasterClocksTreeGptpShowcase.visualizer.radioVisualizer[0] height 16
par TwoMasterClocksTreeGptpShowcase.visualizer.radioVisualizer[0] placementHint "\"bottomRight\""
par TwoMasterClocksTreeGptpShowcase.visualizer.radioVisualizer[0] placementPriority 0
par TwoMasterClocksTreeGptpShowcase.visualizer.radioVisualizer[0] antennaLobeNormalize false
par TwoMasterClocksTreeGptpShowcase.visualizer.radioVisualizer[0] antennaLobeRelativeLabels false
par TwoMasterClocksTreeGptpShowcase.visualizer.radioVisualizer[0] antennaLobePlaneGlobal true
par TwoMasterClocksTreeGptpShowcase.visualizer.radioVisualizer[0] antennaLobePlane "\"view\""
attr enum view,xy,xz,yz
par TwoMasterClocksTreeGptpShowcase.visualizer.radioVisualizer[0] antennaLobeMode "\"logarithmic\""
attr enum logarithmic,linear
par TwoMasterClocksTreeGptpShowcase.visualizer.radioVisualizer[0] antennaLobeLogarithmicBase 10
par TwoMasterClocksTreeGptpShowcase.visualizer.radioVisualizer[0] antennaLobeLogarithmicScale 100
par TwoMasterClocksTreeGptpShowcase.visualizer.radioVisualizer[0] antennaLobeRadius 100
par TwoMasterClocksTreeGptpShowcase.visualizer.radioVisualizer[0] antennaLobeStep 10deg
attr unit deg
par TwoMasterClocksTreeGptpShowcase.visualizer.radioVisualizer[0] antennaLobeOpacity 0.25
par TwoMasterClocksTreeGptpShowcase.visualizer.radioVisualizer[0] antennaLobeLineSmooth true
par TwoMasterClocksTreeGptpShowcase.visualizer.radioVisualizer[0] antennaLobeLineColor "\"black\""
par TwoMasterClocksTreeGptpShowcase.visualizer.radioVisualizer[0] antennaLobeLineStyle "\"solid\""
par TwoMasterClocksTreeGptpShowcase.visualizer.radioVisualizer[0] antennaLobeLineWidth 1
par TwoMasterClocksTreeGptpShowcase.visualizer.radioVisualizer[0] antennaLobeFillColor "\"white\""
par TwoMasterClocksTreeGptpShowcase.visualizer.radioVisualizer[0] zIndex 10
par TwoMasterClocksTreeGptpShowcase.visualizer.physicalLinkVisualizer[0] typename "\"inet.visualizer.canvas.physicallayer.PhysicalLinkCanvasVisualizer\""
par TwoMasterClocksTreeGptpShowcase.visualizer.physicalLinkVisualizer[0] visualizationTargetModule "\"^.^\""
par TwoMasterClocksTreeGptpShowcase.visualizer.physicalLinkVisualizer[0] visualizationSubjectModule "\"^.^\""
par TwoMasterClocksTreeGptpShowcase.visualizer.physicalLinkVisualizer[0] tags "\"\""
par TwoMasterClocksTreeGptpShowcase.visualizer.physicalLinkVisualizer[0] displayLinks false
par TwoMasterClocksTreeGptpShowcase.visualizer.physicalLinkVisualizer[0] activityLevel "\"service\""
attr enum service,peer,protocol
par TwoMasterClocksTreeGptpShowcase.visualizer.physicalLinkVisualizer[0] nodeFilter "\"*\""
attr mutable ""
par TwoMasterClocksTreeGptpShowcase.visualizer.physicalLinkVisualizer[0] interfaceFilter "\"*\""
attr mutable ""
par TwoMasterClocksTreeGptpShowcase.visualizer.physicalLinkVisualizer[0] packetFilter "(omnetpp::cValueHolder)holder: \"*\""
attr mutable ""
par TwoMasterClocksTreeGptpShowcase.visualizer.physicalLinkVisualizer[0] lineColor "\"olive\""
par TwoMasterClocksTreeGptpShowcase.visualizer.physicalLinkVisualizer[0] lineStyle "\"dotted\""
par TwoMasterClocksTreeGptpShowcase.visualizer.physicalLinkVisualizer[0] lineWidth 3
par TwoMasterClocksTreeGptpShowcase.visualizer.physicalLinkVisualizer[0] lineShift 16
par TwoMasterClocksTreeGptpShowcase.visualizer.physicalLinkVisualizer[0] lineShiftMode "\"normal\""
par TwoMasterClocksTreeGptpShowcase.visualizer.physicalLinkVisualizer[0] lineContactSpacing 3
par TwoMasterClocksTreeGptpShowcase.visualizer.physicalLinkVisualizer[0] lineContactMode "\"rectangular\""
attr enum circular,rectangular
par TwoMasterClocksTreeGptpShowcase.visualizer.physicalLinkVisualizer[0] labelFormat "\"%n\""
par TwoMasterClocksTreeGptpShowcase.visualizer.physicalLinkVisualizer[0] labelFont "\"<default>, 8px\""
par TwoMasterClocksTreeGptpShowcase.visualizer.physicalLinkVisualizer[0] labelColor "\"olive\""
par TwoMasterClocksTreeGptpShowcase.visualizer.physicalLinkVisualizer[0] fadeOutMode "\"realTime\""
attr enum realTime,animationTime,simulationTime
par TwoMasterClocksTreeGptpShowcase.visualizer.physicalLinkVisualizer[0] fadeOutTime 1s
attr unit s
par TwoMasterClocksTreeGptpShowcase.visualizer.physicalLinkVisualizer[0] fadeOutAnimationSpeed 0
par TwoMasterClocksTreeGptpShowcase.visualizer.physicalLinkVisualizer[0] holdAnimationTime 0s
attr unit s
par TwoMasterClocksTreeGptpShowcase.visualizer.physicalLinkVisualizer[0] zIndex 1
par TwoMasterClocksTreeGptpShowcase.visualizer.interfaceTableVisualizer[0] typename "\"inet.visualizer.canvas.linklayer.InterfaceTableCanvasVisualizer\""
par TwoMasterClocksTreeGptpShowcase.visualizer.interfaceTableVisualizer[0] visualizationTargetModule "\"^.^\""
par TwoMasterClocksTreeGptpShowcase.visualizer.interfaceTableVisualizer[0] visualizationSubjectModule "\"^.^\""
par TwoMasterClocksTreeGptpShowcase.visualizer.interfaceTableVisualizer[0] tags "\"\""
par TwoMasterClocksTreeGptpShowcase.visualizer.interfaceTableVisualizer[0] networkNodeVisualizerModule "\"TwoMasterClocksTreeGptpShowcase.visualizer.networkNodeVisualizer[0]\""
par TwoMasterClocksTreeGptpShowcase.visualizer.interfaceTableVisualizer[0] displayInterfaceTables false
par TwoMasterClocksTreeGptpShowcase.visualizer.interfaceTableVisualizer[0] displayWiredInterfacesAtConnections true
par TwoMasterClocksTreeGptpShowcase.visualizer.interfaceTableVisualizer[0] displayBackground false
par TwoMasterClocksTreeGptpShowcase.visualizer.interfaceTableVisualizer[0] nodeFilter "\"*\""
attr mutable ""
par TwoMasterClocksTreeGptpShowcase.visualizer.interfaceTableVisualizer[0] interfaceFilter "\"not(lo*)\""
attr mutable ""
par TwoMasterClocksTreeGptpShowcase.visualizer.interfaceTableVisualizer[0] format "\"%N %\\\\%a%/%l\""
attr mutable ""
par TwoMasterClocksTreeGptpShowcase.visualizer.interfaceTableVisualizer[0] placementHint "\"top\""
par TwoMasterClocksTreeGptpShowcase.visualizer.interfaceTableVisualizer[0] placementPriority 0
par TwoMasterClocksTreeGptpShowcase.visualizer.interfaceTableVisualizer[0] font "\"<default>\""
par TwoMasterClocksTreeGptpShowcase.visualizer.interfaceTableVisualizer[0] textColor "\"#005030\""
par TwoMasterClocksTreeGptpShowcase.visualizer.interfaceTableVisualizer[0] backgroundColor "\"white\""
par TwoMasterClocksTreeGptpShowcase.visualizer.interfaceTableVisualizer[0] opacity 1
par TwoMasterClocksTreeGptpShowcase.visualizer.interfaceTableVisualizer[0] zIndex 10
par TwoMasterClocksTreeGptpShowcase.visualizer.dataLinkVisualizer[0] typename "\"inet.visualizer.canvas.linklayer.DataLinkCanvasVisualizer\""
par TwoMasterClocksTreeGptpShowcase.visualizer.dataLinkVisualizer[0] visualizationTargetModule "\"^.^\""
par TwoMasterClocksTreeGptpShowcase.visualizer.dataLinkVisualizer[0] visualizationSubjectModule "\"^.^\""
par TwoMasterClocksTreeGptpShowcase.visualizer.dataLinkVisualizer[0] tags "\"primary GM\""
par TwoMasterClocksTreeGptpShowcase.visualizer.dataLinkVisualizer[0] displayLinks true
par TwoMasterClocksTreeGptpShowcase.visualizer.dataLinkVisualizer[0] activityLevel "\"protocol\""
attr enum service,peer,protocol
par TwoMasterClocksTreeGptpShowcase.visualizer.dataLinkVisualizer[0] nodeFilter "\"*\""
attr mutable ""
par TwoMasterClocksTreeGptpShowcase.visualizer.dataLinkVisualizer[0] interfaceFilter "\"*\""
attr mutable ""
par TwoMasterClocksTreeGptpShowcase.visualizer.dataLinkVisualizer[0] packetFilter "expr(has(GptpSync) && GptpSync.domainNumber == 0 || has(GptpFollowUp) && GptpFollowUp.domainNumber == 0)"
attr mutable ""
par TwoMasterClocksTreeGptpShowcase.visualizer.dataLinkVisualizer[0] lineColor "\"blue2\""
par TwoMasterClocksTreeGptpShowcase.visualizer.dataLinkVisualizer[0] lineStyle "\"solid\""
par TwoMasterClocksTreeGptpShowcase.visualizer.dataLinkVisualizer[0] lineWidth 3
par TwoMasterClocksTreeGptpShowcase.visualizer.dataLinkVisualizer[0] lineShift 16
par TwoMasterClocksTreeGptpShowcase.visualizer.dataLinkVisualizer[0] lineShiftMode "\"normal\""
par TwoMasterClocksTreeGptpShowcase.visualizer.dataLinkVisualizer[0] lineContactSpacing 3
par TwoMasterClocksTreeGptpShowcase.visualizer.dataLinkVisualizer[0] lineContactMode "\"rectangular\""
attr enum circular,rectangular
par TwoMasterClocksTreeGptpShowcase.visualizer.dataLinkVisualizer[0] labelFormat "\"%n\""
par TwoMasterClocksTreeGptpShowcase.visualizer.dataLinkVisualizer[0] labelFont "\"<default>, 8px\""
par TwoMasterClocksTreeGptpShowcase.visualizer.dataLinkVisualizer[0] labelColor "\"darkcyan\""
par TwoMasterClocksTreeGptpShowcase.visualizer.dataLinkVisualizer[0] fadeOutMode "\"realTime\""
attr enum realTime,animationTime,simulationTime
par TwoMasterClocksTreeGptpShowcase.visualizer.dataLinkVisualizer[0] fadeOutTime 1s
attr unit s
par TwoMasterClocksTreeGptpShowcase.visualizer.dataLinkVisualizer[0] fadeOutAnimationSpeed 0
par TwoMasterClocksTreeGptpShowcase.visualizer.dataLinkVisualizer[0] holdAnimationTime 0s
attr unit s
par TwoMasterClocksTreeGptpShowcase.visualizer.dataLinkVisualizer[0] zIndex 2
par TwoMasterClocksTreeGptpShowcase.visualizer.dataLinkVisualizer[1] typename "\"inet.visualizer.canvas.linklayer.DataLinkCanvasVisualizer\""
par TwoMasterClocksTreeGptpShowcase.visualizer.dataLinkVisualizer[1] visualizationTargetModule "\"^.^\""
par TwoMasterClocksTreeGptpShowcase.visualizer.dataLinkVisualizer[1] visualizationSubjectModule "\"^.^\""
par TwoMasterClocksTreeGptpShowcase.visualizer.dataLinkVisualizer[1] tags "\"hot-standby GM\""
par TwoMasterClocksTreeGptpShowcase.visualizer.dataLinkVisualizer[1] displayLinks true
par TwoMasterClocksTreeGptpShowcase.visualizer.dataLinkVisualizer[1] activityLevel "\"protocol\""
attr enum service,peer,protocol
par TwoMasterClocksTreeGptpShowcase.visualizer.dataLinkVisualizer[1] nodeFilter "\"*\""
attr mutable ""
par TwoMasterClocksTreeGptpShowcase.visualizer.dataLinkVisualizer[1] interfaceFilter "\"*\""
attr mutable ""
par TwoMasterClocksTreeGptpShowcase.visualizer.dataLinkVisualizer[1] packetFilter "expr(has(GptpSync) && GptpSync.domainNumber == 1 || has(GptpFollowUp) && GptpFollowUp.domainNumber == 1)"
attr mutable ""
par TwoMasterClocksTreeGptpShowcase.visualizer.dataLinkVisualizer[1] lineColor "\"red2\""
par TwoMasterClocksTreeGptpShowcase.visualizer.dataLinkVisualizer[1] lineStyle "\"solid\""
par TwoMasterClocksTreeGptpShowcase.visualizer.dataLinkVisualizer[1] lineWidth 3
par TwoMasterClocksTreeGptpShowcase.visualizer.dataLinkVisualizer[1] lineShift 16
par TwoMasterClocksTreeGptpShowcase.visualizer.dataLinkVisualizer[1] lineShiftMode "\"normal\""
par TwoMasterClocksTreeGptpShowcase.visualizer.dataLinkVisualizer[1] lineContactSpacing 3
par TwoMasterClocksTreeGptpShowcase.visualizer.dataLinkVisualizer[1] lineContactMode "\"rectangular\""
attr enum circular,rectangular
par TwoMasterClocksTreeGptpShowcase.visualizer.dataLinkVisualizer[1] labelFormat "\"%n\""
par TwoMasterClocksTreeGptpShowcase.visualizer.dataLinkVisualizer[1] labelFont "\"<default>, 8px\""
par TwoMasterClocksTreeGptpShowcase.visualizer.dataLinkVisualizer[1] labelColor "\"darkcyan\""
par TwoMasterClocksTreeGptpShowcase.visualizer.dataLinkVisualizer[1] fadeOutMode "\"realTime\""
attr enum realTime,animationTime,simulationTime
par TwoMasterClocksTreeGptpShowcase.visualizer.dataLinkVisualizer[1] fadeOutTime 1s
attr unit s
par TwoMasterClocksTreeGptpShowcase.visualizer.dataLinkVisualizer[1] fadeOutAnimationSpeed 0
par TwoMasterClocksTreeGptpShowcase.visualizer.dataLinkVisualizer[1] holdAnimationTime 0s
attr unit s
par TwoMasterClocksTreeGptpShowcase.visualizer.dataLinkVisualizer[1] zIndex 2
par TwoMasterClocksTreeGptpShowcase.visualizer.linkBreakVisualizer[0] typename "\"inet.visualizer.canvas.linklayer.LinkBreakCanvasVisualizer\""
par TwoMasterClocksTreeGptpShowcase.visualizer.linkBreakVisualizer[0] visualizationTargetModule "\"^.^\""
par TwoMasterClocksTreeGptpShowcase.visualizer.linkBreakVisualizer[0] visualizationSubjectModule "\"^.^\""
par TwoMasterClocksTreeGptpShowcase.visualizer.linkBreakVisualizer[0] tags "\"\""
par TwoMasterClocksTreeGptpShowcase.visualizer.linkBreakVisualizer[0] displayLinkBreaks false
par TwoMasterClocksTreeGptpShowcase.visualizer.linkBreakVisualizer[0] nodeFilter "\"*\""
attr mutable ""
par TwoMasterClocksTreeGptpShowcase.visualizer.linkBreakVisualizer[0] interfaceFilter "\"*\""
attr mutable ""
par TwoMasterClocksTreeGptpShowcase.visualizer.linkBreakVisualizer[0] packetFilter "(omnetpp::cValueHolder)holder: \"*\""
attr mutable ""
par TwoMasterClocksTreeGptpShowcase.visualizer.linkBreakVisualizer[0] icon "\"status/stop\""
par TwoMasterClocksTreeGptpShowcase.visualizer.linkBreakVisualizer[0] iconTintAmount 0
par TwoMasterClocksTreeGptpShowcase.visualizer.linkBreakVisualizer[0] iconTintColor "\"\""
par TwoMasterClocksTreeGptpShowcase.visualizer.linkBreakVisualizer[0] fadeOutMode "\"realTime\""
attr enum realTime,animationTime,simulationTime
par TwoMasterClocksTreeGptpShowcase.visualizer.linkBreakVisualizer[0] fadeOutTime 1s
attr unit s
par TwoMasterClocksTreeGptpShowcase.visualizer.linkBreakVisualizer[0] fadeOutAnimationSpeed 0
par TwoMasterClocksTreeGptpShowcase.visualizer.linkBreakVisualizer[0] zIndex 2
par TwoMasterClocksTreeGptpShowcase.visualizer.ieee80211Visualizer[0] typename "\"inet.visualizer.canvas.linklayer.Ieee80211CanvasVisualizer\""
par TwoMasterClocksTreeGptpShowcase.visualizer.ieee80211Visualizer[0] visualizationTargetModule "\"^.^\""
par TwoMasterClocksTreeGptpShowcase.visualizer.ieee80211Visualizer[0] visualizationSubjectModule "\"^.^\""
par TwoMasterClocksTreeGptpShowcase.visualizer.ieee80211Visualizer[0] tags "\"\""
par TwoMasterClocksTreeGptpShowcase.visualizer.ieee80211Visualizer[0] networkNodeVisualizerModule "\"TwoMasterClocksTreeGptpShowcase.visualizer.networkNodeVisualizer[0]\""
par TwoMasterClocksTreeGptpShowcase.visualizer.ieee80211Visualizer[0] displayAssociations false
par TwoMasterClocksTreeGptpShowcase.visualizer.ieee80211Visualizer[0] nodeFilter "\"*\""
attr mutable ""
par TwoMasterClocksTreeGptpShowcase.visualizer.ieee80211Visualizer[0] interfaceFilter "\"*\""
attr mutable ""
par TwoMasterClocksTreeGptpShowcase.visualizer.ieee80211Visualizer[0] minPower -85dBm
attr unit dBm
par TwoMasterClocksTreeGptpShowcase.visualizer.ieee80211Visualizer[0] maxPower -50dBm
attr unit dBm
par TwoMasterClocksTreeGptpShowcase.visualizer.ieee80211Visualizer[0] icons "\"misc/signal_power_0 misc/signal_power_1 misc/signal_power_2 misc/signal_power_3\""
par TwoMasterClocksTreeGptpShowcase.visualizer.ieee80211Visualizer[0] iconColor "\"dark\""
par TwoMasterClocksTreeGptpShowcase.visualizer.ieee80211Visualizer[0] labelFont "\"<default>\""
par TwoMasterClocksTreeGptpShowcase.visualizer.ieee80211Visualizer[0] labelColor "\"black\""
par TwoMasterClocksTreeGptpShowcase.visualizer.ieee80211Visualizer[0] placementHint "\"top\""
par TwoMasterClocksTreeGptpShowcase.visualizer.ieee80211Visualizer[0] placementPriority 0
par TwoMasterClocksTreeGptpShowcase.visualizer.ieee80211Visualizer[0] zIndex 2
par TwoMasterClocksTreeGptpShowcase.visualizer.networkRouteVisualizer[0] typename "\"inet.visualizer.canvas.networklayer.NetworkRouteCanvasVisualizer\""
par TwoMasterClocksTreeGptpShowcase.visualizer.networkRouteVisualizer[0] visualizationTargetModule "\"^.^\""
par TwoMasterClocksTreeGptpShowcase.visualizer.networkRouteVisualizer[0] visualizationSubjectModule "\"^.^\""
par TwoMasterClocksTreeGptpShowcase.visualizer.networkRouteVisualizer[0] tags "\"\""
par TwoMasterClocksTreeGptpShowcase.visualizer.networkRouteVisualizer[0] displayRoutes false
par TwoMasterClocksTreeGptpShowcase.visualizer.networkRouteVisualizer[0] startPathSignal "\"packetReceivedFromUpper\""
par TwoMasterClocksTreeGptpShowcase.visualizer.networkRouteVisualizer[0] extendPathSignal "\"packetReceivedFromLower\""
par TwoMasterClocksTreeGptpShowcase.visualizer.networkRouteVisualizer[0] endPathSignal "\"packetSentToUpper\""
par TwoMasterClocksTreeGptpShowcase.visualizer.networkRouteVisualizer[0] nodeFilter "\"*\""
attr mutable ""
par TwoMasterClocksTreeGptpShowcase.visualizer.networkRouteVisualizer[0] packetFilter "(omnetpp::cValueHolder)holder: \"*\""
attr mutable ""
par TwoMasterClocksTreeGptpShowcase.visualizer.networkRouteVisualizer[0] lineColor "\"dark\""
par TwoMasterClocksTreeGptpShowcase.visualizer.networkRouteVisualizer[0] lineStyle "\"solid\""
par TwoMasterClocksTreeGptpShowcase.visualizer.networkRouteVisualizer[0] lineWidth 3
par TwoMasterClocksTreeGptpShowcase.visualizer.networkRouteVisualizer[0] lineSmooth false
par TwoMasterClocksTreeGptpShowcase.visualizer.networkRouteVisualizer[0] lineShift 16
par TwoMasterClocksTreeGptpShowcase.visualizer.networkRouteVisualizer[0] lineShiftMode "\"normal\""
par TwoMasterClocksTreeGptpShowcase.visualizer.networkRouteVisualizer[0] lineContactSpacing 3
par TwoMasterClocksTreeGptpShowcase.visualizer.networkRouteVisualizer[0] lineContactMode "\"rectangular\""
attr enum circular,rectangular
par TwoMasterClocksTreeGptpShowcase.visualizer.networkRouteVisualizer[0] labelFormat "\"%n\""
par TwoMasterClocksTreeGptpShowcase.visualizer.networkRouteVisualizer[0] labelFont "\"<default>, 8px\""
par TwoMasterClocksTreeGptpShowcase.visualizer.networkRouteVisualizer[0] labelColor "\"\""
par TwoMasterClocksTreeGptpShowcase.visualizer.networkRouteVisualizer[0] fadeOutMode "\"realTime\""
attr enum realTime,animationTime,simulationTime
par TwoMasterClocksTreeGptpShowcase.visualizer.networkRouteVisualizer[0] fadeOutTime 1s
attr unit s
par TwoMasterClocksTreeGptpShowcase.visualizer.networkRouteVisualizer[0] fadeOutAnimationSpeed 0
par TwoMasterClocksTreeGptpShowcase.visualizer.networkRouteVisualizer[0] zIndex 3
par TwoMasterClocksTreeGptpShowcase.visualizer.routingTableVisualizer[0] typename "\"inet.visualizer.canvas.networklayer.RoutingTableCanvasVisualizer\""
par TwoMasterClocksTreeGptpShowcase.visualizer.routingTableVisualizer[0] visualizationTargetModule "\"^.^\""
par TwoMasterClocksTreeGptpShowcase.visualizer.routingTableVisualizer[0] visualizationSubjectModule "\"^.^\""
par TwoMasterClocksTreeGptpShowcase.visualizer.routingTableVisualizer[0] tags "\"\""
par TwoMasterClocksTreeGptpShowcase.visualizer.routingTableVisualizer[0] displayRoutingTables false
par TwoMasterClocksTreeGptpShowcase.visualizer.routingTableVisualizer[0] displayRoutesIndividually true
par TwoMasterClocksTreeGptpShowcase.visualizer.routingTableVisualizer[0] displayLabels true
par TwoMasterClocksTreeGptpShowcase.visualizer.routingTableVisualizer[0] destinationFilter "\"*\""
attr mutable ""
par TwoMasterClocksTreeGptpShowcase.visualizer.routingTableVisualizer[0] nodeFilter "\"*\""
attr mutable ""
par TwoMasterClocksTreeGptpShowcase.visualizer.routingTableVisualizer[0] lineColor "\"black\""
par TwoMasterClocksTreeGptpShowcase.visualizer.routingTableVisualizer[0] lineStyle "\"solid\""
par TwoMasterClocksTreeGptpShowcase.visualizer.routingTableVisualizer[0] lineWidth 2
par TwoMasterClocksTreeGptpShowcase.visualizer.routingTableVisualizer[0] lineShift 16
par TwoMasterClocksTreeGptpShowcase.visualizer.routingTableVisualizer[0] lineShiftMode "\"normal\""
par TwoMasterClocksTreeGptpShowcase.visualizer.routingTableVisualizer[0] lineContactSpacing 3
par TwoMasterClocksTreeGptpShowcase.visualizer.routingTableVisualizer[0] lineContactMode "\"rectangular\""
attr enum circular,rectangular
par TwoMasterClocksTreeGptpShowcase.visualizer.routingTableVisualizer[0] labelFormat "\"%d/%m -> %g (%n)\""
attr mutable ""
par TwoMasterClocksTreeGptpShowcase.visualizer.routingTableVisualizer[0] labelFont "\"<default>, 8px\""
par TwoMasterClocksTreeGptpShowcase.visualizer.routingTableVisualizer[0] labelColor "\"black\""
par TwoMasterClocksTreeGptpShowcase.visualizer.routingTableVisualizer[0] zIndex 0
par TwoMasterClocksTreeGptpShowcase.visualizer.transportRouteVisualizer[0] typename "\"inet.visualizer.canvas.transportlayer.TransportRouteCanvasVisualizer\""
par TwoMasterClocksTreeGptpShowcase.visualizer.transportRouteVisualizer[0] visualizationTargetModule "\"^.^\""
par TwoMasterClocksTreeGptpShowcase.visualizer.transportRouteVisualizer[0] visualizationSubjectModule "\"^.^\""
par TwoMasterClocksTreeGptpShowcase.visualizer.transportRouteVisualizer[0] tags "\"\""
par TwoMasterClocksTreeGptpShowcase.visualizer.transportRouteVisualizer[0] displayRoutes false
par TwoMasterClocksTreeGptpShowcase.visualizer.transportRouteVisualizer[0] startPathSignal "\"packetReceivedFromUpper\""
par TwoMasterClocksTreeGptpShowcase.visualizer.transportRouteVisualizer[0] extendPathSignal "\"packetReceivedFromLower\""
par TwoMasterClocksTreeGptpShowcase.visualizer.transportRouteVisualizer[0] endPathSignal "\"packetSentToUpper\""
par TwoMasterClocksTreeGptpShowcase.visualizer.transportRouteVisualizer[0] nodeFilter "\"*\""
attr mutable ""
par TwoMasterClocksTreeGptpShowcase.visualizer.transportRouteVisualizer[0] packetFilter "(omnetpp::cValueHolder)holder: \"*\""
attr mutable ""
par TwoMasterClocksTreeGptpShowcase.visualizer.transportRouteVisualizer[0] lineColor "\"dark\""
par TwoMasterClocksTreeGptpShowcase.visualizer.transportRouteVisualizer[0] lineStyle "\"solid\""
par TwoMasterClocksTreeGptpShowcase.visualizer.transportRouteVisualizer[0] lineWidth 3
par TwoMasterClocksTreeGptpShowcase.visualizer.transportRouteVisualizer[0] lineSmooth false
par TwoMasterClocksTreeGptpShowcase.visualizer.transportRouteVisualizer[0] lineShift 16
par TwoMasterClocksTreeGptpShowcase.visualizer.transportRouteVisualizer[0] lineShiftMode "\"normal\""
par TwoMasterClocksTreeGptpShowcase.visualizer.transportRouteVisualizer[0] lineContactSpacing 3
par TwoMasterClocksTreeGptpShowcase.visualizer.transportRouteVisualizer[0] lineContactMode "\"rectangular\""
attr enum circular,rectangular
par TwoMasterClocksTreeGptpShowcase.visualizer.transportRouteVisualizer[0] labelFormat "\"%n\""
par TwoMasterClocksTreeGptpShowcase.visualizer.transportRouteVisualizer[0] labelFont "\"<default>, 8px\""
par TwoMasterClocksTreeGptpShowcase.visualizer.transportRouteVisualizer[0] labelColor "\"\""
par TwoMasterClocksTreeGptpShowcase.visualizer.transportRouteVisualizer[0] fadeOutMode "\"realTime\""
attr enum realTime,animationTime,simulationTime
par TwoMasterClocksTreeGptpShowcase.visualizer.transportRouteVisualizer[0] fadeOutTime 1s
attr unit s
par TwoMasterClocksTreeGptpShowcase.visualizer.transportRouteVisualizer[0] fadeOutAnimationSpeed 0
par TwoMasterClocksTreeGptpShowcase.visualizer.transportRouteVisualizer[0] zIndex 4
par TwoMasterClocksTreeGptpShowcase.visualizer.transportConnectionVisualizer[0] typename "\"inet.visualizer.canvas.transportlayer.TransportConnectionCanvasVisualizer\""
par TwoMasterClocksTreeGptpShowcase.visualizer.transportConnectionVisualizer[0] visualizationTargetModule "\"^.^\""
par TwoMasterClocksTreeGptpShowcase.visualizer.transportConnectionVisualizer[0] visualizationSubjectModule "\"^.^\""
par TwoMasterClocksTreeGptpShowcase.visualizer.transportConnectionVisualizer[0] tags "\"\""
[...]
par TwoMasterClocksTreeGptpShowcase.tsnDevice4.ipv4.ip multicastTimeToLive 32
par TwoMasterClocksTreeGptpShowcase.tsnDevice4.ipv4.ip fragmentTimeout 60s
attr unit s
par TwoMasterClocksTreeGptpShowcase.tsnDevice4.ipv4.ip limitedBroadcast false
par TwoMasterClocksTreeGptpShowcase.tsnDevice4.ipv4.ip directBroadcastInterfaces "\"\""
scalar TwoMasterClocksTreeGptpShowcase.tsnDevice4.ipv4.ip packetDropAddressResolutionFailed:count 0
attr interpolationmode none
attr recordingmode count
attr source packetDropReasonIsAddressResolutionFailed(packetDropped)
attr title "packet drop: address resolution failed, count"
scalar TwoMasterClocksTreeGptpShowcase.tsnDevice4.ipv4.ip packetDropAddressResolutionFailed:sum(packetBytes) 0
attr interpolationmode none
attr recordingmode sum(packetBytes)
attr source packetDropReasonIsAddressResolutionFailed(packetDropped)
attr title "packet drop: address resolution failed, sum(packetBytes)"
scalar TwoMasterClocksTreeGptpShowcase.tsnDevice4.ipv4.ip packetDropHopLimitReached:count 0
attr interpolationmode none
attr recordingmode count
attr source packetDropReasonIsHopLimitReached(packetDropped)
attr title "packet drop: hop limit reached, count"
scalar TwoMasterClocksTreeGptpShowcase.tsnDevice4.ipv4.ip packetDropHopLimitReached:sum(packetBytes) 0
attr interpolationmode none
attr recordingmode sum(packetBytes)
attr source packetDropReasonIsHopLimitReached(packetDropped)
attr title "packet drop: hop limit reached, sum(packetBytes)"
scalar TwoMasterClocksTreeGptpShowcase.tsnDevice4.ipv4.ip packetDropForwardingDisabled:count 0
attr interpolationmode none
attr recordingmode count
attr source packetDropReasonIsForwardingDisabled(packetDropped)
attr title "packet drop: forwarding disabled, count"
scalar TwoMasterClocksTreeGptpShowcase.tsnDevice4.ipv4.ip packetDropForwardingDisabled:sum(packetBytes) 0
attr interpolationmode none
attr recordingmode sum(packetBytes)
attr source packetDropReasonIsForwardingDisabled(packetDropped)
attr title "packet drop: forwarding disabled, sum(packetBytes)"
scalar TwoMasterClocksTreeGptpShowcase.tsnDevice4.ipv4.ip packetDropNoInterfaceFound:count 0
attr interpolationmode none
attr recordingmode count
attr source packetDropReasonIsNoInterfaceFound(packetDropped)
attr title "packet drop: no interface found, count"
scalar TwoMasterClocksTreeGptpShowcase.tsnDevice4.ipv4.ip packetDropNoInterfaceFound:sum(packetBytes) 0
attr interpolationmode none
attr recordingmode sum(packetBytes)
attr source packetDropReasonIsNoInterfaceFound(packetDropped)
attr title "packet drop: no interface found, sum(packetBytes)"
scalar TwoMasterClocksTreeGptpShowcase.tsnDevice4.ipv4.ip packetDropNoRouteFound:count 0
attr interpolationmode none
attr recordingmode count
attr source packetDropReasonIsNoRouteFound(packetDropped)
attr title "packet drop: no route found, count"
scalar TwoMasterClocksTreeGptpShowcase.tsnDevice4.ipv4.ip packetDropNoRouteFound:sum(packetBytes) 0
attr interpolationmode none
attr recordingmode sum(packetBytes)
attr source packetDropReasonIsNoRouteFound(packetDropped)
attr title "packet drop: no route found, sum(packetBytes)"
scalar TwoMasterClocksTreeGptpShowcase.tsnDevice4.ipv4.ip packetDropUndefined:count 0
attr interpolationmode none
attr recordingmode count
attr source packetDropReasonIsUndefined(packetDropped)
attr title "packet drop: undefined, count"
scalar TwoMasterClocksTreeGptpShowcase.tsnDevice4.ipv4.ip packetDropUndefined:sum(packetBytes) 0
attr interpolationmode none
attr recordingmode sum(packetBytes)
attr source packetDropReasonIsUndefined(packetDropped)
attr title "packet drop: undefined, sum(packetBytes)"
par TwoMasterClocksTreeGptpShowcase.tsnDevice4.ipv4.arp typename "\"inet.networklayer.arp.ipv4.GlobalArp\""
par TwoMasterClocksTreeGptpShowcase.tsnDevice4.ipv4.arp interfaceTableModule "\"TwoMasterClocksTreeGptpShowcase.tsnDevice4.interfaceTable\""
par TwoMasterClocksTreeGptpShowcase.tsnDevice4.ipv4.arp addressType "\"ipv4\""
attr enum ipv4,ipv6,mac,moduleid,modulepath
par TwoMasterClocksTreeGptpShowcase.tsnDevice4.ipv4.lp typename "\"inet.common.MessageDispatcher\""
par TwoMasterClocksTreeGptpShowcase.tsnDevice4.ipv4.lp displayStringTextFormat "\"processed %p pk (%l)\""
par TwoMasterClocksTreeGptpShowcase.tsnDevice4.ipv4.lp forwardServiceRegistration true
par TwoMasterClocksTreeGptpShowcase.tsnDevice4.ipv4.lp forwardProtocolRegistration true
par TwoMasterClocksTreeGptpShowcase.tsnDevice4.ipv4 typename "\"inet.networklayer.ipv4.Ipv4NetworkLayer\""
par TwoMasterClocksTreeGptpShowcase.tsnDevice4.ipv4 forwarding false
par TwoMasterClocksTreeGptpShowcase.tsnDevice4.ipv4 multicastForwarding false
par TwoMasterClocksTreeGptpShowcase.tsnDevice4.ipv4 interfaceTableModule "\"TwoMasterClocksTreeGptpShowcase.tsnDevice4.interfaceTable\""
par TwoMasterClocksTreeGptpShowcase.tsnDevice4.ipv4 displayStringTextFormat "\"%i\""
par TwoMasterClocksTreeGptpShowcase.tsnDevice4.nl typename "\"inet.common.MessageDispatcher\""
par TwoMasterClocksTreeGptpShowcase.tsnDevice4.nl displayStringTextFormat "\"processed %p pk (%l)\""
par TwoMasterClocksTreeGptpShowcase.tsnDevice4.nl forwardServiceRegistration true
par TwoMasterClocksTreeGptpShowcase.tsnDevice4.nl forwardProtocolRegistration true
par TwoMasterClocksTreeGptpShowcase.tsnDevice4.udp typename "\"inet.transportlayer.udp.Udp\""
par TwoMasterClocksTreeGptpShowcase.tsnDevice4.udp interfaceTableModule "\"TwoMasterClocksTreeGptpShowcase.tsnDevice4.interfaceTable\""
par TwoMasterClocksTreeGptpShowcase.tsnDevice4.udp icmpModule "\"^.ipv4.icmp\""
par TwoMasterClocksTreeGptpShowcase.tsnDevice4.udp icmpv6Module "\"^.ipv6.icmpv6\""
par TwoMasterClocksTreeGptpShowcase.tsnDevice4.udp crcMode "\"declared\""
attr enum disabled,declared,computed
par TwoMasterClocksTreeGptpShowcase.tsnDevice4.udp defaultMulticastLoop true
scalar TwoMasterClocksTreeGptpShowcase.tsnDevice4.udp packetReceived:count 0
attr interpolationmode none
attr recordingmode count
attr source packetReceived
attr title "packets received, count"
scalar TwoMasterClocksTreeGptpShowcase.tsnDevice4.udp packetReceived:sum(packetBytes) 0
attr interpolationmode none
attr recordingmode sum(packetBytes)
attr source packetReceived
attr title "packets received, sum(packetBytes)"
scalar TwoMasterClocksTreeGptpShowcase.tsnDevice4.udp packetSent:count 0
attr interpolationmode none
attr recordingmode count
attr source packetSent
attr title "packets sent, count"
scalar TwoMasterClocksTreeGptpShowcase.tsnDevice4.udp packetSent:sum(packetBytes) 0
attr interpolationmode none
attr recordingmode sum(packetBytes)
attr source packetSent
attr title "packets sent, sum(packetBytes)"
scalar TwoMasterClocksTreeGptpShowcase.tsnDevice4.udp passedUpPk:count 0
attr interpolationmode none
attr recordingmode count
attr source packetSentToUpper
attr title "packets passed up, count"
scalar TwoMasterClocksTreeGptpShowcase.tsnDevice4.udp droppedPkWrongPort:count 0
attr interpolationmode none
attr recordingmode count
attr source packetDropReasonIsNoPortFound(packetDropped)
attr title "packets dropped (wrong port), count"
scalar TwoMasterClocksTreeGptpShowcase.tsnDevice4.udp droppedPkBadChecksum:count 0
attr interpolationmode none
attr recordingmode count
attr source packetDropReasonIsIncorrectlyReceived(packetDropped)
attr title "packets dropped (checksum error), count"
par TwoMasterClocksTreeGptpShowcase.tsnDevice4.tcp typename "\"inet.transportlayer.tcp.Tcp\""
par TwoMasterClocksTreeGptpShowcase.tsnDevice4.tcp crcMode "\"declared\""
attr enum declared,computed
par TwoMasterClocksTreeGptpShowcase.tsnDevice4.tcp advertisedWindow 7504
par TwoMasterClocksTreeGptpShowcase.tsnDevice4.tcp delayedAcksEnabled false
par TwoMasterClocksTreeGptpShowcase.tsnDevice4.tcp nagleEnabled true
par TwoMasterClocksTreeGptpShowcase.tsnDevice4.tcp limitedTransmitEnabled false
par TwoMasterClocksTreeGptpShowcase.tsnDevice4.tcp increasedIWEnabled false
par TwoMasterClocksTreeGptpShowcase.tsnDevice4.tcp sackSupport false
par TwoMasterClocksTreeGptpShowcase.tsnDevice4.tcp windowScalingSupport false
par TwoMasterClocksTreeGptpShowcase.tsnDevice4.tcp windowScalingFactor -1
par TwoMasterClocksTreeGptpShowcase.tsnDevice4.tcp timestampSupport false
par TwoMasterClocksTreeGptpShowcase.tsnDevice4.tcp mss 536
par TwoMasterClocksTreeGptpShowcase.tsnDevice4.tcp msl 120s
attr unit s
par TwoMasterClocksTreeGptpShowcase.tsnDevice4.tcp tcpAlgorithmClass "\"TcpReno\""
par TwoMasterClocksTreeGptpShowcase.tsnDevice4.tcp useDataNotification false
par TwoMasterClocksTreeGptpShowcase.tsnDevice4.tcp dupthresh 3
par TwoMasterClocksTreeGptpShowcase.tsnDevice4.tcp initialSsthresh 4294967295
par TwoMasterClocksTreeGptpShowcase.tsnDevice4.tcp stopOperationExtraTime 0s
attr unit s
par TwoMasterClocksTreeGptpShowcase.tsnDevice4.tcp stopOperationTimeout 2s
attr unit s
par TwoMasterClocksTreeGptpShowcase.tsnDevice4.tcp ecnWillingness false
par TwoMasterClocksTreeGptpShowcase.tsnDevice4.tcp dctcpGamma 0.0625
par TwoMasterClocksTreeGptpShowcase.tsnDevice4.tn typename "\"inet.common.MessageDispatcher\""
par TwoMasterClocksTreeGptpShowcase.tsnDevice4.tn displayStringTextFormat "\"processed %p pk (%l)\""
par TwoMasterClocksTreeGptpShowcase.tsnDevice4.tn forwardServiceRegistration true
par TwoMasterClocksTreeGptpShowcase.tsnDevice4.tn forwardProtocolRegistration true
par TwoMasterClocksTreeGptpShowcase.tsnDevice4.at typename "\"inet.common.MessageDispatcher\""
par TwoMasterClocksTreeGptpShowcase.tsnDevice4.at displayStringTextFormat "\"processed %p pk (%l)\""
par TwoMasterClocksTreeGptpShowcase.tsnDevice4.at forwardServiceRegistration true
par TwoMasterClocksTreeGptpShowcase.tsnDevice4.at forwardProtocolRegistration true
par TwoMasterClocksTreeGptpShowcase.tsnDevice4.gptp.socketIn.channel typename "\"ned.IdealChannel\""
par TwoMasterClocksTreeGptpShowcase.tsnDevice4.gptp.multiplexer.out.channel typename "\"ned.IdealChannel\""
par TwoMasterClocksTreeGptpShowcase.tsnDevice4.gptp.domain[0] typename "\"inet.linklayer.ieee8021as.Gptp\""
par TwoMasterClocksTreeGptpShowcase.tsnDevice4.gptp.domain[0] clockModule "\"tsnDevice4.clock.clock[0]\""
par TwoMasterClocksTreeGptpShowcase.tsnDevice4.gptp.domain[0] interfaceTableModule "\"TwoMasterClocksTreeGptpShowcase.tsnDevice4.interfaceTable\""
par TwoMasterClocksTreeGptpShowcase.tsnDevice4.gptp.domain[0] gptpNodeType "\"SLAVE_NODE\""
par TwoMasterClocksTreeGptpShowcase.tsnDevice4.gptp.domain[0] domainNumber 0
par TwoMasterClocksTreeGptpShowcase.tsnDevice4.gptp.domain[0] slavePort "\"eth0\""
par TwoMasterClocksTreeGptpShowcase.tsnDevice4.gptp.domain[0] masterPorts []
par TwoMasterClocksTreeGptpShowcase.tsnDevice4.gptp.domain[0] correctionField 0s
attr unit s
par TwoMasterClocksTreeGptpShowcase.tsnDevice4.gptp.domain[0] syncInterval 0.125s
attr unit s
par TwoMasterClocksTreeGptpShowcase.tsnDevice4.gptp.domain[0] pdelayInterval 1s
attr unit s
par TwoMasterClocksTreeGptpShowcase.tsnDevice4.gptp.domain[0] syncInitialOffset 0.0625s
attr unit s
par TwoMasterClocksTreeGptpShowcase.tsnDevice4.gptp.domain[0] pdelayInitialOffset 0.0001s
attr unit s
par TwoMasterClocksTreeGptpShowcase.tsnDevice4.gptp.domain[0] pDelayReqProcessingTime 8e-06s
attr unit s
par TwoMasterClocksTreeGptpShowcase.tsnDevice4.gptp.domain[0] followUpInterval 7e-06s
attr unit s
scalar TwoMasterClocksTreeGptpShowcase.tsnDevice4.gptp.domain[0] packetDropNotAddressedToUs:count 0
attr interpolationmode none
attr recordingmode count
attr source packetDropReasonIsNotAddressedToUs(packetDropped)
attr title "packet drop: not addressed to us, count"
scalar TwoMasterClocksTreeGptpShowcase.tsnDevice4.gptp.domain[0] packetDropNotAddressedToUs:sum(packetBytes) 0
attr interpolationmode none
attr recordingmode sum(packetBytes)
attr source packetDropReasonIsNotAddressedToUs(packetDropped)
attr title "packet drop: not addressed to us, sum(packetBytes)"
par TwoMasterClocksTreeGptpShowcase.tsnDevice4.gptp.domain[1] typename "\"inet.linklayer.ieee8021as.Gptp\""
par TwoMasterClocksTreeGptpShowcase.tsnDevice4.gptp.domain[1] clockModule "\"tsnDevice4.clock.clock[1]\""
par TwoMasterClocksTreeGptpShowcase.tsnDevice4.gptp.domain[1] interfaceTableModule "\"TwoMasterClocksTreeGptpShowcase.tsnDevice4.interfaceTable\""
par TwoMasterClocksTreeGptpShowcase.tsnDevice4.gptp.domain[1] gptpNodeType "\"SLAVE_NODE\""
par TwoMasterClocksTreeGptpShowcase.tsnDevice4.gptp.domain[1] domainNumber 1
par TwoMasterClocksTreeGptpShowcase.tsnDevice4.gptp.domain[1] slavePort "\"eth0\""
par TwoMasterClocksTreeGptpShowcase.tsnDevice4.gptp.domain[1] masterPorts []
par TwoMasterClocksTreeGptpShowcase.tsnDevice4.gptp.domain[1] correctionField 0s
attr unit s
par TwoMasterClocksTreeGptpShowcase.tsnDevice4.gptp.domain[1] syncInterval 0.125s
attr unit s
par TwoMasterClocksTreeGptpShowcase.tsnDevice4.gptp.domain[1] pdelayInterval 1s
attr unit s
par TwoMasterClocksTreeGptpShowcase.tsnDevice4.gptp.domain[1] syncInitialOffset 0.125s
attr unit s
par TwoMasterClocksTreeGptpShowcase.tsnDevice4.gptp.domain[1] pdelayInitialOffset 0.0001s
attr unit s
par TwoMasterClocksTreeGptpShowcase.tsnDevice4.gptp.domain[1] pDelayReqProcessingTime 8e-06s
attr unit s
par TwoMasterClocksTreeGptpShowcase.tsnDevice4.gptp.domain[1] followUpInterval 7e-06s
attr unit s
scalar TwoMasterClocksTreeGptpShowcase.tsnDevice4.gptp.domain[1] packetDropNotAddressedToUs:count 0
attr interpolationmode none
attr recordingmode count
attr source packetDropReasonIsNotAddressedToUs(packetDropped)
attr title "packet drop: not addressed to us, count"
scalar TwoMasterClocksTreeGptpShowcase.tsnDevice4.gptp.domain[1] packetDropNotAddressedToUs:sum(packetBytes) 0
attr interpolationmode none
attr recordingmode sum(packetBytes)
attr source packetDropReasonIsNotAddressedToUs(packetDropped)
attr title "packet drop: not addressed to us, sum(packetBytes)"
par TwoMasterClocksTreeGptpShowcase.tsnDevice4.gptp.multiplexer typename "\"inet.queueing.common.PacketMultiplexer\""
par TwoMasterClocksTreeGptpShowcase.tsnDevice4.gptp.multiplexer displayStringTextFormat "\"passed %p pk (%l)\""
par TwoMasterClocksTreeGptpShowcase.tsnDevice4.gptp.multiplexer forwardServiceRegistration true
par TwoMasterClocksTreeGptpShowcase.tsnDevice4.gptp.multiplexer forwardProtocolRegistration true
scalar TwoMasterClocksTreeGptpShowcase.tsnDevice4.gptp.multiplexer packets:count 0
attr recordingmode count
attr source "merge(packetPushed, packetPulled)"
attr title "packets, count"
attr unit pk
scalar TwoMasterClocksTreeGptpShowcase.tsnDevice4.gptp.multiplexer packetLengths:sum 0
attr interpolationmode none
attr recordingmode sum
attr source "packetLength(merge(packetPushed, packetPulled))"
attr title "packet lengths, sum"
attr unit b
statistic TwoMasterClocksTreeGptpShowcase.tsnDevice4.gptp.multiplexer packetLengths:histogram
field count 0
field mean -nan
field stddev nan
field min nan
field max nan
field sum 0
field sqrsum 0
attr interpolationmode none
attr recordingmode histogram
attr source "packetLength(merge(packetPushed, packetPulled))"
attr title "packet lengths"
attr unit b
bin	-inf	0
bin	0	0
bin	1	0
par TwoMasterClocksTreeGptpShowcase.tsnDevice4.gptp.classifier typename "\"inet.queueing.classifier.PacketClassifier\""
par TwoMasterClocksTreeGptpShowcase.tsnDevice4.gptp.classifier displayStringTextFormat "\"classified %p pk (%l)\""
par TwoMasterClocksTreeGptpShowcase.tsnDevice4.gptp.classifier reverseOrder false
par TwoMasterClocksTreeGptpShowcase.tsnDevice4.gptp.classifier classifierClass "\"inet::GptpDomainNumberClassifier\""
scalar TwoMasterClocksTreeGptpShowcase.tsnDevice4.gptp.classifier packets:count 32
attr recordingmode count
attr source packetPushed
attr title "packets, count"
attr unit pk
scalar TwoMasterClocksTreeGptpShowcase.tsnDevice4.gptp.classifier packetLengths:sum 15392
attr interpolationmode none
attr recordingmode sum
attr source packetLength(packetPushed)
attr title "packet lengths, sum"
attr unit b
statistic TwoMasterClocksTreeGptpShowcase.tsnDevice4.gptp.classifier packetLengths:histogram
field count 32
field mean 481
field stddev 115.58769886555
field min 368
field max 608
field sum 15392
field sqrsum 7817728
attr interpolationmode none
attr recordingmode histogram
attr source packetLength(packetPushed)
attr title "packet lengths"
attr unit b
bin	-inf	0
bin	305	0
bin	310	0
bin	315	0
bin	320	0
bin	325	0
bin	330	0
bin	335	0
bin	340	0
bin	345	0
bin	350	0
bin	355	0
bin	360	0
bin	365	14
bin	370	0
bin	375	0
bin	380	0
bin	385	0
bin	390	0
bin	395	0
bin	400	0
bin	405	0
bin	410	0
bin	415	0
bin	420	0
bin	425	0
bin	430	4
bin	435	0
bin	440	0
bin	445	0
bin	450	0
bin	455	0
bin	460	0
bin	465	0
bin	470	0
bin	475	0
bin	480	0
bin	485	0
bin	490	0
bin	495	0
bin	500	0
bin	505	0
bin	510	0
bin	515	0
bin	520	0
bin	525	0
bin	530	0
bin	535	0
bin	540	0
bin	545	0
bin	550	0
bin	555	0
bin	560	0
bin	565	0
bin	570	0
bin	575	0
bin	580	0
bin	585	0
bin	590	0
bin	595	0
bin	600	0
bin	605	14
bin	610	0
bin	615	0
bin	620	0
bin	625	0
bin	630	0
bin	635	0
bin	640	0
bin	645	0
bin	650	0
bin	655	0
bin	660	0
bin	665	0
bin	670	0
par TwoMasterClocksTreeGptpShowcase.tsnDevice4.gptp typename "\"inet.linklayer.ieee8021as.MultiDomainGptp\""
par TwoMasterClocksTreeGptpShowcase.tsnDevice4.gptp clockModule "\"tsnDevice4.clock\""
par TwoMasterClocksTreeGptpShowcase.tsnDevice4.gptp interfaceTableModule "\"TwoMasterClocksTreeGptpShowcase.tsnDevice4.interfaceTable\""
par TwoMasterClocksTreeGptpShowcase.tsnDevice4.gptp numDomains 2
par TwoMasterClocksTreeGptpShowcase.tsnDevice4.gptp gptpNodeType "\"SLAVE_NODE\""
par TwoMasterClocksTreeGptpShowcase.tsnDevice4 typename "\"inet.node.tsn.TsnDevice\""
par TwoMasterClocksTreeGptpShowcase.tsnDevice4 hasStatus false
par TwoMasterClocksTreeGptpShowcase.tsnDevice4 osgModel "\"\""
par TwoMasterClocksTreeGptpShowcase.tsnDevice4 osgModelColor "\"\""
par TwoMasterClocksTreeGptpShowcase.tsnDevice4 canvasImage "\"\""
par TwoMasterClocksTreeGptpShowcase.tsnDevice4 canvasImageColor "\"\""
par TwoMasterClocksTreeGptpShowcase.tsnDevice4 recordPcap false
par TwoMasterClocksTreeGptpShowcase.tsnDevice4 numPcapRecorders 0
par TwoMasterClocksTreeGptpShowcase.tsnDevice4 numLoInterfaces 1
par TwoMasterClocksTreeGptpShowcase.tsnDevice4 numWlanInterfaces 0
par TwoMasterClocksTreeGptpShowcase.tsnDevice4 numEthInterfaces 0
par TwoMasterClocksTreeGptpShowcase.tsnDevice4 numPppInterfaces 0
par TwoMasterClocksTreeGptpShowcase.tsnDevice4 numTunInterfaces 0
par TwoMasterClocksTreeGptpShowcase.tsnDevice4 numVirtInterfaces 0
par TwoMasterClocksTreeGptpShowcase.tsnDevice4 fcsMode "\"declared\""
attr enum declared,computed
par TwoMasterClocksTreeGptpShowcase.tsnDevice4 hasIpv4 true
par TwoMasterClocksTreeGptpShowcase.tsnDevice4 hasIpv6 false
par TwoMasterClocksTreeGptpShowcase.tsnDevice4 hasGn false
par TwoMasterClocksTreeGptpShowcase.tsnDevice4 forwarding false
par TwoMasterClocksTreeGptpShowcase.tsnDevice4 multicastForwarding false
par TwoMasterClocksTreeGptpShowcase.tsnDevice4 hasUdp true
par TwoMasterClocksTreeGptpShowcase.tsnDevice4 hasTcp true
par TwoMasterClocksTreeGptpShowcase.tsnDevice4 hasSctp false
par TwoMasterClocksTreeGptpShowcase.tsnDevice4 numApps 0
par TwoMasterClocksTreeGptpShowcase.tsnDevice4 hasTimeSynchronization true
par TwoMasterClocksTreeGptpShowcase.tsnDevice4 hasIngressTrafficFiltering false
par TwoMasterClocksTreeGptpShowcase.tsnDevice4 hasEgressTrafficFiltering false
par TwoMasterClocksTreeGptpShowcase.tsnDevice4 hasEgressTrafficShaping false
par TwoMasterClocksTreeGptpShowcase.tsnDevice4 hasStreamRedundancy false
par TwoMasterClocksTreeGptpShowcase.tsnDevice4 hasIncomingStreams false
par TwoMasterClocksTreeGptpShowcase.tsnDevice4 hasOutgoingStreams false
par TwoMasterClocksTreeGptpShowcase.tsnDevice4 hasFramePreemption false
par TwoMasterClocksTreeGptpShowcase.tsnDevice4 hasCutthroughSwitching false
par TwoMasterClocksTreeGptpShowcase typename "\"inet.showcases.tsn.timesynchronization.gptp.TwoMasterClocksTreeGptpShowcase\""
par TwoMasterClocksTreeGptpShowcase recordPcap false
par TwoMasterClocksTreeGptpShowcase numPcapRecorders 0
par TwoMasterClocksTreeGptpShowcase hasGlobalArp true

