version 3
run PrimaryAndHotStandbyMasterClocks-0-20250714-17:18:22-17337
attr configname PrimaryAndHotStandbyMasterClocks
attr datetime 20250714-17:18:22
attr datetimef 20250714-171822
attr experiment PrimaryAndHotStandbyMasterClocks
attr inifile omnetpp.ini
attr iterationvars ""
attr iterationvarsd ""
attr iterationvarsf ""
attr measurement ""
attr network TwoMasterClocksTreeGptpShowcase
attr processid 17337
attr repetition 0
attr replication #0
attr resultdir results
attr runnumber 0
attr seedset 0
config image-path ../../../../images
config network TwoMasterClocksTreeGptpShowcase
config description "Extended tree topology with two master clocks"
config experiment-label PrimaryAndHotStandbyMasterClocks
config *.tsnClock2.clock.typename SettableClock
config *.tsnClock1.gptp.typename Gptp
config *.tsnClock1.gptp.clockModule "\"tsnClock1.clock\""
config *.tsnClock1.gptp.masterPorts "[\"eth0\"]"
config *.tsnClock2.gptp.typename MultiDomainGptp
config *.tsnClock2.gptp.numDomains 2
config *.tsnClock2.gptp.domain[*].clockModule "\"tsnClock2.clock\""
config *.tsnClock2.gptp.domain[0].gptpNodeType "\"SLAVE_NODE\""
config *.tsnClock2.gptp.domain[0].slavePort "\"eth0\""
config *.tsnClock2.gptp.domain[1].gptpNodeType "\"MASTER_NODE\""
config *.tsnClock2.gptp.domain[1].masterPorts "[\"eth0\"]"
config *.tsnSwitch*.clock.typename MultiClock
config *.tsnSwitch*.clock.numClocks 2
config *.tsnSwitch*.gptp.typename MultiDomainGptp
config *.tsnSwitch*.gptp.numDomains 2
config *.tsnSwitch1.gptp.domain[0].slavePort "\"eth0\""
config *.tsnSwitch1.gptp.domain[0].masterPorts "[\"eth1\", \"eth2\", \"eth3\"]"
config *.tsnSwitch1.gptp.domain[1].slavePort "\"eth1\""
config *.tsnSwitch1.gptp.domain[1].masterPorts "[\"eth2\", \"eth3\"]"
config *.tsnSwitch2.gptp.domain[0].slavePort "\"eth1\""
config *.tsnSwitch2.gptp.domain[0].masterPorts "[\"eth0\", \"eth2\", \"eth3\"]"
config *.tsnSwitch2.gptp.domain[1].slavePort "\"eth0\""
config *.tsnSwitch2.gptp.domain[1].masterPorts "[\"eth1\", \"eth2\", \"eth3\"]"
config *.tsnDevice*.clock.typename MultiClock
config *.tsnDevice*.clock.numClocks 2
config *.tsnDevice*.gptp.typename MultiDomainGptp
config *.tsnDevice*.gptp.numDomains 2
config *.tsnDevice1.gptp.clockModule "\"tsnDevice1.clock\""
config *.tsnDevice2.gptp.clockModule "\"tsnDevice2.clock\""
config *.tsnDevice3.gptp.clockModule "\"tsnDevice3.clock\""
config *.tsnDevice4.gptp.clockModule "\"tsnDevice4.clock\""
config *.tsnDevice*.gptp.domain[*].slavePort "\"eth0\""
config **.pdelayInitialOffset 100us
config *.*.gptp.domain[0].syncInitialOffset "syncInterval * 1 / 2"
config *.*.gptp.domain[1].syncInitialOffset "syncInterval * 2 / 2"
config **.clock[0].referenceClock "\"tsnClock1.clock\""
config **.clock[1].referenceClock "\"tsnClock2.clock\""
config *.visualizer.numDataLinkVisualizers 2
config *.visualizer.dataLinkVisualizer[*].displayLinks true
config *.visualizer.dataLinkVisualizer[*].activityLevel "\"protocol\""
config *.visualizer.dataLinkVisualizer[0].packetFilter "expr((has(GptpSync) && GptpSync.domainNumber == 0) || (has(GptpFollowUp) && GptpFollowUp.domainNumber == 0))"
config *.visualizer.dataLinkVisualizer[1].packetFilter "expr((has(GptpSync) && GptpSync.domainNumber == 1) || (has(GptpFollowUp) && GptpFollowUp.domainNumber == 1))"
config *.visualizer.dataLinkVisualizer[0].tags "\"primary GM\""
config *.visualizer.dataLinkVisualizer[1].tags "\"hot-standby GM\""
config *.visualizer.dataLinkVisualizer[0].lineColor "\"blue2\""
config *.visualizer.dataLinkVisualizer[1].lineColor "\"red2\""
config *.visualizer.numInfoVisualizers 8
config *.visualizer.infoVisualizer[0].modules "\"*.tsnDevice*.*.clock[0]\""
config *.visualizer.infoVisualizer[0].textColor "\"blue\""
config *.visualizer.infoVisualizer[1].modules "\"*.tsnDevice*.*.clock[1]\""
config *.visualizer.infoVisualizer[1].textColor "\"red\""
config *.visualizer.infoVisualizer[0..1].placementHint "\"bottom\""
config *.visualizer.infoVisualizer[2].modules "\"*.tsnClock1.clock\""
config *.visualizer.infoVisualizer[3].modules "\"*.tsnClock2.clock\""
config *.visualizer.infoVisualizer[2].textColor "\"blue\""
config *.visualizer.infoVisualizer[3].textColor "\"red\""
config *.tsnClock*.clock.displayStringTextFormat "\"time: %T\""
config *.visualizer.infoVisualizer[4].modules "\"*.tsnSwitch1.*.clock[0]\""
config *.visualizer.infoVisualizer[5].modules "\"*.tsnSwitch1.*.clock[1]\""
config *.visualizer.infoVisualizer[6].modules "\"*.tsnSwitch2.*.clock[0]\""
config *.visualizer.infoVisualizer[7].modules "\"*.tsnSwitch2.*.clock[1]\""
config *.visualizer.infoVisualizer[{4,6}].textColor "\"blue\""
config *.visualizer.infoVisualizer[{5,7}].textColor "\"red\""
config *.tsnDevice*.clock.*.displayStringTextFormat "\"diff: %d\""
config *.tsnSwitch*.clock.*.displayStringTextFormat "\"diff: %d\""
config *.visualizer.infoVisualizer[4..5].placementHint "\"topLeft\""
config *.visualizer.infoVisualizer[6..7].placementHint "\"topRight\""
config experiment-label PrimaryAndHotStandbyMasterClocks
config sim-time-limit 1s
config description abstract
config *.*.hasTimeSynchronization true
config **.tsnClock*.clock.oscillator.typename RandomDriftOscillator
config **.oscillator.changeInterval 12.5ms
config **.oscillator.driftRate "uniform(-100ppm, 100ppm)"
config **.oscillator.driftRateChange "uniform(-1ppm, 1ppm)"
config **.oscillator.driftRateChangeUpperLimit 100ppm
config **.oscillator.driftRateChangeLowerLimit -100ppm
config *.*.eth[*].bitrate 100Mbps
config *.visualizer.typename IntegratedMultiCanvasVisualizer
config *.visualizer.infoVisualizer[*].displayInfos true

vector 0 TwoMasterClocksTreeGptpShowcase.tsnClock1.clock.oscillator driftRateChanged:vector ETV
attr interpolationmode sample-hold
attr recordingmode vector
attr title "Oscillator drift rate"
attr unit ppm
vector 1 TwoMasterClocksTreeGptpShowcase.tsnClock1.clock timeChanged:vector ETV
attr interpolationmode linear
attr recordingmode vector
attr title "Clock time"
vector 2 TwoMasterClocksTreeGptpShowcase.tsnClock1.ethernet.macHeaderInserter incomingPacketLengths:vector ETV
attr interpolationmode none
attr recordingmode vector
attr source "packetLength(merge(packetPushedIn, packetPulledIn))"
attr title "incoming packet lengths"
attr unit b
vector 3 TwoMasterClocksTreeGptpShowcase.tsnClock1.ethernet.macHeaderInserter incomingDataRate:vector ETV
attr interpolationmode linear
attr recordingmode vector
attr source "throughput(merge(packetPushedIn, packetPulledIn))"
attr title "incoming data rate"
attr unit bps
vector 4 TwoMasterClocksTreeGptpShowcase.tsnClock1.ethernet.macHeaderInserter outgoingPacketLengths:vector ETV
attr interpolationmode none
attr recordingmode vector
attr source "packetLength(merge(packetPushedOut, packetPulledOut))"
attr title "outgoing packet lengths"
attr unit b
vector 5 TwoMasterClocksTreeGptpShowcase.tsnClock1.ethernet.macHeaderInserter outgoingDataRate:vector ETV
attr interpolationmode linear
attr recordingmode vector
attr source "throughput(merge(packetPushedOut, packetPulledOut))"
attr title "outgoing data rate"
attr unit bps
vector 6 TwoMasterClocksTreeGptpShowcase.tsnClock1.ethernet.macHeaderInserter flowIncomingPacketLengths:vector ETV
attr interpolationmode none
attr recordingmode vector
attr source "packetLength(demuxFlow(merge(packetPushedIn, packetPulledIn)))"
attr title "flow specific incoming packet lengths"
attr unit b
vector 7 TwoMasterClocksTreeGptpShowcase.tsnClock1.ethernet.macHeaderInserter flowIncomingDataRate:vector ETV
attr interpolationmode linear
attr recordingmode vector
attr source "throughput(demuxFlow(merge(packetPushedIn, packetPulledIn)))"
attr title "flow specific incoming data rate"
attr unit bps
vector 8 TwoMasterClocksTreeGptpShowcase.tsnClock1.ethernet.macHeaderInserter flowOutgoingPacketLengths:vector ETV
attr interpolationmode none
attr recordingmode vector
attr source "packetLength(demuxFlow(merge(packetPushedOut, packetPulledOut)))"
attr title "flow specific outgoing packet lengths"
attr unit b
vector 9 TwoMasterClocksTreeGptpShowcase.tsnClock1.ethernet.macHeaderInserter flowOutgoingDataRate:vector ETV
attr interpolationmode linear
attr recordingmode vector
attr source "throughput(demuxFlow(merge(packetPushedOut, packetPulledOut)))"
attr title "flow specific outgoing data rate"
attr unit bps
vector 10 TwoMasterClocksTreeGptpShowcase.tsnClock1.ethernet.paddingInserter incomingPacketLengths:vector ETV
attr interpolationmode none
attr recordingmode vector
attr source "packetLength(merge(packetPushedIn, packetPulledIn))"
attr title "incoming packet lengths"
attr unit b
vector 11 TwoMasterClocksTreeGptpShowcase.tsnClock1.ethernet.paddingInserter incomingDataRate:vector ETV
attr interpolationmode linear
attr recordingmode vector
attr source "throughput(merge(packetPushedIn, packetPulledIn))"
attr title "incoming data rate"
attr unit bps
vector 12 TwoMasterClocksTreeGptpShowcase.tsnClock1.ethernet.paddingInserter outgoingPacketLengths:vector ETV
attr interpolationmode none
attr recordingmode vector
attr source "packetLength(merge(packetPushedOut, packetPulledOut))"
attr title "outgoing packet lengths"
attr unit b
vector 13 TwoMasterClocksTreeGptpShowcase.tsnClock1.ethernet.paddingInserter outgoingDataRate:vector ETV
attr interpolationmode linear
attr recordingmode vector
attr source "throughput(merge(packetPushedOut, packetPulledOut))"
attr title "outgoing data rate"
attr unit bps
vector 14 TwoMasterClocksTreeGptpShowcase.tsnClock1.ethernet.paddingInserter flowIncomingPacketLengths:vector ETV
attr interpolationmode none
attr recordingmode vector
attr source "packetLength(demuxFlow(merge(packetPushedIn, packetPulledIn)))"
attr title "flow specific incoming packet lengths"
attr unit b
vector 15 TwoMasterClocksTreeGptpShowcase.tsnClock1.ethernet.paddingInserter flowIncomingDataRate:vector ETV
attr interpolationmode linear
attr recordingmode vector
attr source "throughput(demuxFlow(merge(packetPushedIn, packetPulledIn)))"
attr title "flow specific incoming data rate"
attr unit bps
vector 16 TwoMasterClocksTreeGptpShowcase.tsnClock1.ethernet.paddingInserter flowOutgoingPacketLengths:vector ETV
attr interpolationmode none
attr recordingmode vector
attr source "packetLength(demuxFlow(merge(packetPushedOut, packetPulledOut)))"
attr title "flow specific outgoing packet lengths"
attr unit b
vector 17 TwoMasterClocksTreeGptpShowcase.tsnClock1.ethernet.paddingInserter flowOutgoingDataRate:vector ETV
attr interpolationmode linear
attr recordingmode vector
attr source "throughput(demuxFlow(merge(packetPushedOut, packetPulledOut)))"
attr title "flow specific outgoing data rate"
attr unit bps
vector 18 TwoMasterClocksTreeGptpShowcase.tsnClock1.ethernet.fcsInserter incomingPacketLengths:vector ETV
attr interpolationmode none
attr recordingmode vector
attr source "packetLength(merge(packetPushedIn, packetPulledIn))"
attr title "incoming packet lengths"
attr unit b
vector 19 TwoMasterClocksTreeGptpShowcase.tsnClock1.ethernet.fcsInserter incomingDataRate:vector ETV
attr interpolationmode linear
attr recordingmode vector
attr source "throughput(merge(packetPushedIn, packetPulledIn))"
attr title "incoming data rate"
attr unit bps
vector 20 TwoMasterClocksTreeGptpShowcase.tsnClock1.ethernet.fcsInserter outgoingPacketLengths:vector ETV
attr interpolationmode none
attr recordingmode vector
attr source "packetLength(merge(packetPushedOut, packetPulledOut))"
attr title "outgoing packet lengths"
attr unit b
vector 21 TwoMasterClocksTreeGptpShowcase.tsnClock1.ethernet.fcsInserter outgoingDataRate:vector ETV
attr interpolationmode linear
attr recordingmode vector
attr source "throughput(merge(packetPushedOut, packetPulledOut))"
attr title "outgoing data rate"
attr unit bps
vector 22 TwoMasterClocksTreeGptpShowcase.tsnClock1.ethernet.fcsInserter flowIncomingPacketLengths:vector ETV
attr interpolationmode none
attr recordingmode vector
attr source "packetLength(demuxFlow(merge(packetPushedIn, packetPulledIn)))"
attr title "flow specific incoming packet lengths"
attr unit b
vector 23 TwoMasterClocksTreeGptpShowcase.tsnClock1.ethernet.fcsInserter flowIncomingDataRate:vector ETV
attr interpolationmode linear
attr recordingmode vector
attr source "throughput(demuxFlow(merge(packetPushedIn, packetPulledIn)))"
attr title "flow specific incoming data rate"
attr unit bps
vector 24 TwoMasterClocksTreeGptpShowcase.tsnClock1.ethernet.fcsInserter flowOutgoingPacketLengths:vector ETV
attr interpolationmode none
attr recordingmode vector
attr source "packetLength(demuxFlow(merge(packetPushedOut, packetPulledOut)))"
attr title "flow specific outgoing packet lengths"
attr unit b
vector 25 TwoMasterClocksTreeGptpShowcase.tsnClock1.ethernet.fcsInserter flowOutgoingDataRate:vector ETV
attr interpolationmode linear
attr recordingmode vector
attr source "throughput(demuxFlow(merge(packetPushedOut, packetPulledOut)))"
attr title "flow specific outgoing data rate"
attr unit bps
vector 26 TwoMasterClocksTreeGptpShowcase.tsnClock1.ethernet.macHeaderChecker incomingPacketLengths:vector ETV
attr interpolationmode none
attr recordingmode vector
attr source "packetLength(merge(packetPushedIn, packetPulledIn))"
attr title "incoming packet lengths"
attr unit b
vector 27 TwoMasterClocksTreeGptpShowcase.tsnClock1.ethernet.macHeaderChecker incomingDataRate:vector ETV
attr interpolationmode linear
attr recordingmode vector
attr source "throughput(merge(packetPushedIn, packetPulledIn))"
attr title "incoming data rate"
attr unit bps
vector 28 TwoMasterClocksTreeGptpShowcase.tsnClock1.ethernet.macHeaderChecker outgoingPacketLengths:vector ETV
attr interpolationmode none
attr recordingmode vector
attr source "packetLength(merge(packetPushedOut, packetPulledOut))"
attr title "outgoing packet lengths"
attr unit b
vector 29 TwoMasterClocksTreeGptpShowcase.tsnClock1.ethernet.macHeaderChecker outgoingDataRate:vector ETV
attr interpolationmode linear
attr recordingmode vector
attr source "throughput(merge(packetPushedOut, packetPulledOut))"
attr title "outgoing data rate"
attr unit bps
vector 30 TwoMasterClocksTreeGptpShowcase.tsnClock1.ethernet.macHeaderChecker droppedPacketLengths:vector ETV
attr interpolationmode none
attr recordingmode vector
attr source packetLength(packetDropped)
attr title "dropped packet lengths"
attr unit b
vector 31 TwoMasterClocksTreeGptpShowcase.tsnClock1.ethernet.macHeaderChecker droppedDataRate:vector ETV
attr interpolationmode linear
attr recordingmode vector
attr source throughput(packetDropped)
attr title "dropped data rate"
attr unit bps
vector 32 TwoMasterClocksTreeGptpShowcase.tsnClock1.ethernet.macHeaderChecker flowIncomingPacketLengths:vector ETV
attr interpolationmode none
attr recordingmode vector
attr source "packetLength(demuxFlow(merge(packetPushedIn, packetPulledIn)))"
attr title "flow specific incoming packet lengths"
attr unit b
vector 33 TwoMasterClocksTreeGptpShowcase.tsnClock1.ethernet.macHeaderChecker flowIncomingDataRate:vector ETV
attr interpolationmode linear
attr recordingmode vector
attr source "throughput(demuxFlow(merge(packetPushedIn, packetPulledIn)))"
attr title "flow specific incoming data rate"
attr unit bps
vector 34 TwoMasterClocksTreeGptpShowcase.tsnClock1.ethernet.macHeaderChecker flowOutgoingPacketLengths:vector ETV
attr interpolationmode none
attr recordingmode vector
attr source "packetLength(demuxFlow(merge(packetPushedOut, packetPulledOut)))"
attr title "flow specific outgoing packet lengths"
attr unit b
vector 35 TwoMasterClocksTreeGptpShowcase.tsnClock1.ethernet.macHeaderChecker flowOutgoingDataRate:vector ETV
attr interpolationmode linear
attr recordingmode vector
attr source "throughput(demuxFlow(merge(packetPushedOut, packetPulledOut)))"
attr title "flow specific outgoing data rate"
attr unit bps
vector 36 TwoMasterClocksTreeGptpShowcase.tsnClock1.ethernet.macHeaderChecker flowDroppedPacketLengths:vector ETV
attr interpolationmode none
attr recordingmode vector
attr source packetLength(demuxFlow(packetDropped))
attr title "flow specific dropped packet lengths"
attr unit b
vector 37 TwoMasterClocksTreeGptpShowcase.tsnClock1.ethernet.macHeaderChecker flowDroppedDataRate:vector ETV
attr interpolationmode linear
attr recordingmode vector
attr source throughput(demuxFlow(packetDropped))
attr title "flow specific dropped data rate"
attr unit bps
vector 38 TwoMasterClocksTreeGptpShowcase.tsnClock1.ethernet.fcsChecker incomingPacketLengths:vector ETV
attr interpolationmode none
attr recordingmode vector
attr source "packetLength(merge(packetPushedIn, packetPulledIn))"
attr title "incoming packet lengths"
attr unit b
vector 39 TwoMasterClocksTreeGptpShowcase.tsnClock1.ethernet.fcsChecker incomingDataRate:vector ETV
attr interpolationmode linear
attr recordingmode vector
attr source "throughput(merge(packetPushedIn, packetPulledIn))"
attr title "incoming data rate"
attr unit bps
vector 40 TwoMasterClocksTreeGptpShowcase.tsnClock1.ethernet.fcsChecker outgoingPacketLengths:vector ETV
attr interpolationmode none
attr recordingmode vector
attr source "packetLength(merge(packetPushedOut, packetPulledOut))"
attr title "outgoing packet lengths"
attr unit b
vector 41 TwoMasterClocksTreeGptpShowcase.tsnClock1.ethernet.fcsChecker outgoingDataRate:vector ETV
attr interpolationmode linear
attr recordingmode vector
attr source "throughput(merge(packetPushedOut, packetPulledOut))"
attr title "outgoing data rate"
attr unit bps
vector 42 TwoMasterClocksTreeGptpShowcase.tsnClock1.ethernet.fcsChecker droppedPacketLengths:vector ETV
attr interpolationmode none
attr recordingmode vector
attr source packetLength(packetDropped)
attr title "dropped packet lengths"
attr unit b
vector 43 TwoMasterClocksTreeGptpShowcase.tsnClock1.ethernet.fcsChecker droppedDataRate:vector ETV
attr interpolationmode linear
attr recordingmode vector
attr source throughput(packetDropped)
attr title "dropped data rate"
attr unit bps
vector 44 TwoMasterClocksTreeGptpShowcase.tsnClock1.ethernet.fcsChecker flowIncomingPacketLengths:vector ETV
attr interpolationmode none
attr recordingmode vector
attr source "packetLength(demuxFlow(merge(packetPushedIn, packetPulledIn)))"
attr title "flow specific incoming packet lengths"
attr unit b
vector 45 TwoMasterClocksTreeGptpShowcase.tsnClock1.ethernet.fcsChecker flowIncomingDataRate:vector ETV
attr interpolationmode linear
attr recordingmode vector
attr source "throughput(demuxFlow(merge(packetPushedIn, packetPulledIn)))"
attr title "flow specific incoming data rate"
attr unit bps
vector 46 TwoMasterClocksTreeGptpShowcase.tsnClock1.ethernet.fcsChecker flowOutgoingPacketLengths:vector ETV
attr interpolationmode none
attr recordingmode vector
attr source "packetLength(demuxFlow(merge(packetPushedOut, packetPulledOut)))"
attr title "flow specific outgoing packet lengths"
attr unit b
vector 47 TwoMasterClocksTreeGptpShowcase.tsnClock1.ethernet.fcsChecker flowOutgoingDataRate:vector ETV
attr interpolationmode linear
attr recordingmode vector
attr source "throughput(demuxFlow(merge(packetPushedOut, packetPulledOut)))"
attr title "flow specific outgoing data rate"
attr unit bps
vector 48 TwoMasterClocksTreeGptpShowcase.tsnClock1.ethernet.fcsChecker flowDroppedPacketLengths:vector ETV
attr interpolationmode none
attr recordingmode vector
attr source packetLength(demuxFlow(packetDropped))
attr title "flow specific dropped packet lengths"
attr unit b
vector 49 TwoMasterClocksTreeGptpShowcase.tsnClock1.ethernet.fcsChecker flowDroppedDataRate:vector ETV
attr interpolationmode linear
attr recordingmode vector
attr source throughput(demuxFlow(packetDropped))
attr title "flow specific dropped data rate"
attr unit bps
vector 50 TwoMasterClocksTreeGptpShowcase.tsnClock1.lo[0].lo rcvdPkFromHl:vector(packetBytes) ETV
attr interpolationmode none
attr recordingmode vector(packetBytes)
attr source packetReceivedFromUpper
attr title "packets received from higher layer, packetBytes"
vector 51 TwoMasterClocksTreeGptpShowcase.tsnClock1.lo[0].lo passedUpPk:vector(packetBytes) ETV
attr interpolationmode none
attr recordingmode vector(packetBytes)
attr source packetSentToUpper
attr title "packets passed to higher layer, packetBytes"
vector 52 TwoMasterClocksTreeGptpShowcase.tsnClock1.lo[0] packetDropInterfaceDown:vector(packetBytes) ETV
attr interpolationmode none
attr recordingmode vector(packetBytes)
attr source packetDropReasonIsInterfaceDown(packetDropped)
attr title "packet drops: interface down, packetBytes"
vector 53 TwoMasterClocksTreeGptpShowcase.tsnClock1.lo[0] packetDropNoCarrier:vector(packetBytes) ETV
attr interpolationmode none
attr recordingmode vector(packetBytes)
attr source packetDropReasonIsNoCarrier(packetDropped)
attr title "packet drops: no carrier, packetBytes"
vector 54 TwoMasterClocksTreeGptpShowcase.tsnClock1.eth[0].macLayer.queue queueLength:vector ETV
attr autoWarmupFilter false
attr interpolationmode sample-hold
attr recordingmode vector
attr source "warmup(atomic(constant0(packetPushEnded) + count(packetPushStarted) - count(packetPulled) - count(packetRemoved) - count(packetDropped)))"
attr title "queue length"
attr unit pk
vector 55 TwoMasterClocksTreeGptpShowcase.tsnClock1.eth[0].macLayer.queue queueBitLength:vector ETV
attr autoWarmupFilter false
attr interpolationmode sample-hold
attr recordingmode vector
attr source "warmup(atomic(constant0(packetPushEnded) + sum(packetLength(packetPushStarted)) - sum(packetLength(packetPulled)) - sum(packetLength(packetRemoved)) - sum(packetLength(packetDropped))))"
attr title "queue bit length"
attr unit b
vector 56 TwoMasterClocksTreeGptpShowcase.tsnClock1.eth[0].macLayer.queue queueingTime:vector ETV
attr interpolationmode none
attr recordingmode vector
attr source queueingTime(packetPulled)
attr title "queueing times"
attr unit s
vector 57 TwoMasterClocksTreeGptpShowcase.tsnClock1.eth[0].macLayer.queue incomingPacketLengths:vector ETV
attr interpolationmode none
attr recordingmode vector
attr source packetLength(packetPushStarted)
attr title "incoming packet lengths"
attr unit b
vector 58 TwoMasterClocksTreeGptpShowcase.tsnClock1.eth[0].macLayer.queue incomingDataRate:vector ETV
attr interpolationmode linear
attr recordingmode vector
attr source throughput(packetPushStarted)
attr title "incoming datarate"
attr unit bps
vector 59 TwoMasterClocksTreeGptpShowcase.tsnClock1.eth[0].macLayer.queue outgoingPacketLengths:vector ETV
attr interpolationmode none
attr recordingmode vector
attr source packetLength(packetPulled)
attr title "outgoing packet lengths"
attr unit b
vector 60 TwoMasterClocksTreeGptpShowcase.tsnClock1.eth[0].macLayer.queue outgoingDataRate:vector ETV
attr interpolationmode linear
attr recordingmode vector
attr source throughput(packetPulled)
attr title "outgoing datarate"
attr unit bps
vector 61 TwoMasterClocksTreeGptpShowcase.tsnClock1.eth[0].macLayer.queue droppedPacketLengthsQueueOverflow:vector ETV
attr interpolationmode none
attr recordingmode vector
attr source packetLength(packetDropReasonIsQueueOverflow(packetDropped))
attr title "dropped packet lengths: queue overflow"
attr unit b
vector 62 TwoMasterClocksTreeGptpShowcase.tsnClock1.eth[0].macLayer.queue flowQueueingTime:vector ETV
attr interpolationmode none
attr recordingmode vector
attr source queueingTime(demuxFlow(packetPulled))
attr title "flow queueing times"
attr unit s
vector 63 TwoMasterClocksTreeGptpShowcase.tsnClock1.eth[0].macLayer.queue flowIncomingDataRate:vector ETV
attr interpolationmode linear
attr recordingmode vector
attr source throughput(flowPacketLength(demuxFlow(packetPushStarted)))
attr title "flow specific incoming data rate"
attr unit bps
vector 64 TwoMasterClocksTreeGptpShowcase.tsnClock1.eth[0].macLayer.queue flowOutgoingDataRate:vector ETV
attr interpolationmode linear
attr recordingmode vector
attr source throughput(flowPacketLength(demuxFlow(packetPulled)))
attr title "flow specific outgoing data rate"
attr unit bps
vector 65 TwoMasterClocksTreeGptpShowcase.tsnClock1.eth[0].macLayer.server incomingPacketLengths:vector ETV
attr interpolationmode none
attr recordingmode vector
attr source packetLength(packetPulled)
attr title "incoming packet lengths"
attr unit b
vector 66 TwoMasterClocksTreeGptpShowcase.tsnClock1.eth[0].macLayer.server incomingDataRate:vector ETV
attr interpolationmode linear
attr recordingmode vector
attr source throughput(packetPulled)
attr title "incoming datarate"
attr unit bps
vector 67 TwoMasterClocksTreeGptpShowcase.tsnClock1.eth[0].macLayer.server outgoingPacketLengths:vector ETV
attr interpolationmode none
attr recordingmode vector
attr source packetLength(packetPushed)
attr title "outgoing packet lengths"
attr unit b
vector 68 TwoMasterClocksTreeGptpShowcase.tsnClock1.eth[0].macLayer.server outgoingDataRate:vector ETV
attr interpolationmode linear
attr recordingmode vector
attr source throughput(packetPushed)
attr title "outgoing datarate"
attr unit bps
vector 69 TwoMasterClocksTreeGptpShowcase.tsnClock1.eth[0].macLayer.outboundEmitter incomingPacketLengths:vector ETV
attr interpolationmode none
attr recordingmode vector
attr source "packetLength(merge(packetPushedIn, packetPulledIn))"
attr title "incoming packet lengths"
attr unit b
vector 70 TwoMasterClocksTreeGptpShowcase.tsnClock1.eth[0].macLayer.outboundEmitter incomingDataRate:vector ETV
attr interpolationmode linear
attr recordingmode vector
attr source "throughput(merge(packetPushedIn, packetPulledIn))"
attr title "incoming data rate"
attr unit bps
vector 71 TwoMasterClocksTreeGptpShowcase.tsnClock1.eth[0].macLayer.outboundEmitter outgoingPacketLengths:vector ETV
attr interpolationmode none
attr recordingmode vector
attr source "packetLength(merge(packetPushedOut, packetPulledOut))"
attr title "outgoing packet lengths"
attr unit b
vector 72 TwoMasterClocksTreeGptpShowcase.tsnClock1.eth[0].macLayer.outboundEmitter outgoingDataRate:vector ETV
attr interpolationmode linear
attr recordingmode vector
attr source "throughput(merge(packetPushedOut, packetPulledOut))"
attr title "outgoing data rate"
attr unit bps
vector 73 TwoMasterClocksTreeGptpShowcase.tsnClock1.eth[0].macLayer.outboundEmitter flowIncomingPacketLengths:vector ETV
attr interpolationmode none
attr recordingmode vector
attr source "packetLength(demuxFlow(merge(packetPushedIn, packetPulledIn)))"
attr title "flow specific incoming packet lengths"
attr unit b
vector 74 TwoMasterClocksTreeGptpShowcase.tsnClock1.eth[0].macLayer.outboundEmitter flowIncomingDataRate:vector ETV
attr interpolationmode linear
attr recordingmode vector
attr source "throughput(demuxFlow(merge(packetPushedIn, packetPulledIn)))"
attr title "flow specific incoming data rate"
attr unit bps
vector 75 TwoMasterClocksTreeGptpShowcase.tsnClock1.eth[0].macLayer.outboundEmitter flowOutgoingPacketLengths:vector ETV
attr interpolationmode none
attr recordingmode vector
attr source "packetLength(demuxFlow(merge(packetPushedOut, packetPulledOut)))"
attr title "flow specific outgoing packet lengths"
attr unit b
vector 76 TwoMasterClocksTreeGptpShowcase.tsnClock1.eth[0].macLayer.outboundEmitter flowOutgoingDataRate:vector ETV
attr interpolationmode linear
attr recordingmode vector
attr source "throughput(demuxFlow(merge(packetPushedOut, packetPulledOut)))"
attr title "flow specific outgoing data rate"
attr unit bps
vector 77 TwoMasterClocksTreeGptpShowcase.tsnClock1.eth[0].macLayer.fcsChecker incomingPacketLengths:vector ETV
attr interpolationmode none
attr recordingmode vector
attr source "packetLength(merge(packetPushedIn, packetPulledIn))"
attr title "incoming packet lengths"
attr unit b
vector 78 TwoMasterClocksTreeGptpShowcase.tsnClock1.eth[0].macLayer.fcsChecker incomingDataRate:vector ETV
attr interpolationmode linear
attr recordingmode vector
attr source "throughput(merge(packetPushedIn, packetPulledIn))"
attr title "incoming data rate"
attr unit bps
vector 79 TwoMasterClocksTreeGptpShowcase.tsnClock1.eth[0].macLayer.fcsChecker outgoingPacketLengths:vector ETV
attr interpolationmode none
attr recordingmode vector
attr source "packetLength(merge(packetPushedOut, packetPulledOut))"
attr title "outgoing packet lengths"
attr unit b
vector 80 TwoMasterClocksTreeGptpShowcase.tsnClock1.eth[0].macLayer.fcsChecker outgoingDataRate:vector ETV
attr interpolationmode linear
attr recordingmode vector
attr source "throughput(merge(packetPushedOut, packetPulledOut))"
attr title "outgoing data rate"
attr unit bps
vector 81 TwoMasterClocksTreeGptpShowcase.tsnClock1.eth[0].macLayer.fcsChecker droppedPacketLengths:vector ETV
attr interpolationmode none
attr recordingmode vector
attr source packetLength(packetDropped)
attr title "dropped packet lengths"
attr unit b
vector 82 TwoMasterClocksTreeGptpShowcase.tsnClock1.eth[0].macLayer.fcsChecker droppedDataRate:vector ETV
attr interpolationmode linear
attr recordingmode vector
attr source throughput(packetDropped)
attr title "dropped data rate"
attr unit bps
vector 83 TwoMasterClocksTreeGptpShowcase.tsnClock1.eth[0].macLayer.fcsChecker flowIncomingPacketLengths:vector ETV
attr interpolationmode none
attr recordingmode vector
attr source "packetLength(demuxFlow(merge(packetPushedIn, packetPulledIn)))"
attr title "flow specific incoming packet lengths"
attr unit b
vector 84 TwoMasterClocksTreeGptpShowcase.tsnClock1.eth[0].macLayer.fcsChecker flowIncomingDataRate:vector ETV
attr interpolationmode linear
attr recordingmode vector
attr source "throughput(demuxFlow(merge(packetPushedIn, packetPulledIn)))"
attr title "flow specific incoming data rate"
attr unit bps
vector 85 TwoMasterClocksTreeGptpShowcase.tsnClock1.eth[0].macLayer.fcsChecker flowOutgoingPacketLengths:vector ETV
attr interpolationmode none
attr recordingmode vector
attr source "packetLength(demuxFlow(merge(packetPushedOut, packetPulledOut)))"
attr title "flow specific outgoing packet lengths"
attr unit b
vector 86 TwoMasterClocksTreeGptpShowcase.tsnClock1.eth[0].macLayer.fcsChecker flowOutgoingDataRate:vector ETV
attr interpolationmode linear
attr recordingmode vector
attr source "throughput(demuxFlow(merge(packetPushedOut, packetPulledOut)))"
attr title "flow specific outgoing data rate"
attr unit bps
vector 87 TwoMasterClocksTreeGptpShowcase.tsnClock1.eth[0].macLayer.fcsChecker flowDroppedPacketLengths:vector ETV
attr interpolationmode none
attr recordingmode vector
attr source packetLength(demuxFlow(packetDropped))
attr title "flow specific dropped packet lengths"
attr unit b
vector 88 TwoMasterClocksTreeGptpShowcase.tsnClock1.eth[0].macLayer.fcsChecker flowDroppedDataRate:vector ETV
attr interpolationmode linear
attr recordingmode vector
attr source throughput(demuxFlow(packetDropped))
attr title "flow specific dropped data rate"
attr unit bps
vector 89 TwoMasterClocksTreeGptpShowcase.tsnClock1.eth[0].macLayer.inboundEmitter incomingPacketLengths:vector ETV
attr interpolationmode none
attr recordingmode vector
attr source "packetLength(merge(packetPushedIn, packetPulledIn))"
attr title "incoming packet lengths"
attr unit b
vector 90 TwoMasterClocksTreeGptpShowcase.tsnClock1.eth[0].macLayer.inboundEmitter incomingDataRate:vector ETV
attr interpolationmode linear
attr recordingmode vector
attr source "throughput(merge(packetPushedIn, packetPulledIn))"
attr title "incoming data rate"
attr unit bps
vector 91 TwoMasterClocksTreeGptpShowcase.tsnClock1.eth[0].macLayer.inboundEmitter outgoingPacketLengths:vector ETV
attr interpolationmode none
attr recordingmode vector
attr source "packetLength(merge(packetPushedOut, packetPulledOut))"
attr title "outgoing packet lengths"
attr unit b
vector 92 TwoMasterClocksTreeGptpShowcase.tsnClock1.eth[0].macLayer.inboundEmitter outgoingDataRate:vector ETV
attr interpolationmode linear
attr recordingmode vector
attr source "throughput(merge(packetPushedOut, packetPulledOut))"
attr title "outgoing data rate"
attr unit bps
vector 93 TwoMasterClocksTreeGptpShowcase.tsnClock1.eth[0].macLayer.inboundEmitter flowIncomingPacketLengths:vector ETV
attr interpolationmode none
attr recordingmode vector
attr source "packetLength(demuxFlow(merge(packetPushedIn, packetPulledIn)))"
attr title "flow specific incoming packet lengths"
attr unit b
vector 94 TwoMasterClocksTreeGptpShowcase.tsnClock1.eth[0].macLayer.inboundEmitter flowIncomingDataRate:vector ETV
attr interpolationmode linear
attr recordingmode vector
attr source "throughput(demuxFlow(merge(packetPushedIn, packetPulledIn)))"
attr title "flow specific incoming data rate"
attr unit bps
vector 95 TwoMasterClocksTreeGptpShowcase.tsnClock1.eth[0].macLayer.inboundEmitter flowOutgoingPacketLengths:vector ETV
attr interpolationmode none
attr recordingmode vector
attr source "packetLength(demuxFlow(merge(packetPushedOut, packetPulledOut)))"
attr title "flow specific outgoing packet lengths"
attr unit b
vector 96 TwoMasterClocksTreeGptpShowcase.tsnClock1.eth[0].macLayer.inboundEmitter flowOutgoingDataRate:vector ETV
attr interpolationmode linear
attr recordingmode vector
attr source "throughput(demuxFlow(merge(packetPushedOut, packetPulledOut)))"
attr title "flow specific outgoing data rate"
attr unit bps
vector 97 TwoMasterClocksTreeGptpShowcase.tsnClock1.eth[0].phyLayer.phyHeaderInserter incomingPacketLengths:vector ETV
attr interpolationmode none
attr recordingmode vector
attr source "packetLength(merge(packetPushedIn, packetPulledIn))"
attr title "incoming packet lengths"
attr unit b
vector 98 TwoMasterClocksTreeGptpShowcase.tsnClock1.eth[0].phyLayer.phyHeaderInserter incomingDataRate:vector ETV
attr interpolationmode linear
attr recordingmode vector
attr source "throughput(merge(packetPushedIn, packetPulledIn))"
attr title "incoming data rate"
attr unit bps
vector 99 TwoMasterClocksTreeGptpShowcase.tsnClock1.eth[0].phyLayer.phyHeaderInserter outgoingPacketLengths:vector ETV
attr interpolationmode none
attr recordingmode vector
attr source "packetLength(merge(packetPushedOut, packetPulledOut))"
attr title "outgoing packet lengths"
attr unit b
vector 100 TwoMasterClocksTreeGptpShowcase.tsnClock1.eth[0].phyLayer.phyHeaderInserter outgoingDataRate:vector ETV
attr interpolationmode linear
attr recordingmode vector
attr source "throughput(merge(packetPushedOut, packetPulledOut))"
attr title "outgoing data rate"
attr unit bps
vector 101 TwoMasterClocksTreeGptpShowcase.tsnClock1.eth[0].phyLayer.phyHeaderInserter flowIncomingPacketLengths:vector ETV
attr interpolationmode none
attr recordingmode vector
attr source "packetLength(demuxFlow(merge(packetPushedIn, packetPulledIn)))"
attr title "flow specific incoming packet lengths"
attr unit b
vector 102 TwoMasterClocksTreeGptpShowcase.tsnClock1.eth[0].phyLayer.phyHeaderInserter flowIncomingDataRate:vector ETV
attr interpolationmode linear
attr recordingmode vector
attr source "throughput(demuxFlow(merge(packetPushedIn, packetPulledIn)))"
attr title "flow specific incoming data rate"
attr unit bps
vector 103 TwoMasterClocksTreeGptpShowcase.tsnClock1.eth[0].phyLayer.phyHeaderInserter flowOutgoingPacketLengths:vector ETV
attr interpolationmode none
attr recordingmode vector
attr source "packetLength(demuxFlow(merge(packetPushedOut, packetPulledOut)))"
attr title "flow specific outgoing packet lengths"
attr unit b
vector 104 TwoMasterClocksTreeGptpShowcase.tsnClock1.eth[0].phyLayer.phyHeaderInserter flowOutgoingDataRate:vector ETV
attr interpolationmode linear
attr recordingmode vector
attr source "throughput(demuxFlow(merge(packetPushedOut, packetPulledOut)))"
attr title "flow specific outgoing data rate"
attr unit bps
vector 105 TwoMasterClocksTreeGptpShowcase.tsnClock1.eth[0].phyLayer.interFrameGapInserter interpacketGap:vector ETV
attr interpolationmode sample-hold
attr recordingmode vector
attr source "count(interpacketGapStarted) - count(interpacketGapEnded)"
attr title "interpacket gap state"
attr type int
vector 106 TwoMasterClocksTreeGptpShowcase.tsnClock1.eth[0].phyLayer.outboundEmitter incomingPacketLengths:vector ETV
attr interpolationmode none
attr recordingmode vector
attr source "packetLength(merge(packetPushedIn, packetPulledIn))"
attr title "incoming packet lengths"
attr unit b
vector 107 TwoMasterClocksTreeGptpShowcase.tsnClock1.eth[0].phyLayer.outboundEmitter incomingDataRate:vector ETV
attr interpolationmode linear
attr recordingmode vector
attr source "throughput(merge(packetPushedIn, packetPulledIn))"
attr title "incoming data rate"
attr unit bps
vector 108 TwoMasterClocksTreeGptpShowcase.tsnClock1.eth[0].phyLayer.outboundEmitter outgoingPacketLengths:vector ETV
attr interpolationmode none
attr recordingmode vector
attr source "packetLength(merge(packetPushedOut, packetPulledOut))"
attr title "outgoing packet lengths"
attr unit b
vector 109 TwoMasterClocksTreeGptpShowcase.tsnClock1.eth[0].phyLayer.outboundEmitter outgoingDataRate:vector ETV
attr interpolationmode linear
attr recordingmode vector
attr source "throughput(merge(packetPushedOut, packetPulledOut))"
attr title "outgoing data rate"
attr unit bps
vector 110 TwoMasterClocksTreeGptpShowcase.tsnClock1.eth[0].phyLayer.outboundEmitter flowIncomingPacketLengths:vector ETV
attr interpolationmode none
attr recordingmode vector
attr source "packetLength(demuxFlow(merge(packetPushedIn, packetPulledIn)))"
attr title "flow specific incoming packet lengths"
attr unit b
vector 111 TwoMasterClocksTreeGptpShowcase.tsnClock1.eth[0].phyLayer.outboundEmitter flowIncomingDataRate:vector ETV
attr interpolationmode linear
attr recordingmode vector
attr source "throughput(demuxFlow(merge(packetPushedIn, packetPulledIn)))"
attr title "flow specific incoming data rate"
attr unit bps
vector 112 TwoMasterClocksTreeGptpShowcase.tsnClock1.eth[0].phyLayer.outboundEmitter flowOutgoingPacketLengths:vector ETV
attr interpolationmode none
attr recordingmode vector
attr source "packetLength(demuxFlow(merge(packetPushedOut, packetPulledOut)))"
attr title "flow specific outgoing packet lengths"
attr unit b
vector 113 TwoMasterClocksTreeGptpShowcase.tsnClock1.eth[0].phyLayer.outboundEmitter flowOutgoingDataRate:vector ETV
attr interpolationmode linear
attr recordingmode vector
attr source "throughput(demuxFlow(merge(packetPushedOut, packetPulledOut)))"
attr title "flow specific outgoing data rate"
attr unit bps
vector 114 TwoMasterClocksTreeGptpShowcase.tsnClock1.eth[0].phyLayer.transmitter transmitting:vector ETV
attr interpolationmode sample-hold
attr recordingmode vector
attr source "count(transmissionStarted) - count(transmissionEnded)"
attr title "transmitting state"
attr type int
vector 115 TwoMasterClocksTreeGptpShowcase.tsnClock1.eth[0].phyLayer.transmitter throughput:vector ETV
attr interpolationmode linear
attr recordingmode vector
attr source throughput(transmissionEnded)
attr title throughput
attr unit bps
vector 116 TwoMasterClocksTreeGptpShowcase.tsnClock1.eth[0].phyLayer.transmitter utilization:vector ETV
attr interpolationmode linear
attr recordingmode vector
attr source "100 * utilization(count(transmissionStarted) - count(transmissionEnded))"
attr title utilization
attr unit %
vector 117 TwoMasterClocksTreeGptpShowcase.tsnClock1.eth[0].phyLayer.transmitter transmissionTime:vector ETV
attr interpolationmode none
attr recordingmode vector
attr source packetDuration(transmissionEnded)
attr title "transmission time"
attr unit s
vector 118 TwoMasterClocksTreeGptpShowcase.tsnClock1.eth[0].phyLayer.transmitter flowTransmissionTime:vector ETV
attr interpolationmode none
attr recordingmode vector
attr source packetDuration(demuxFlow(transmissionEnded))
attr title "flow transmission time"
attr unit s
vector 119 TwoMasterClocksTreeGptpShowcase.tsnClock1.eth[0].phyLayer.phyHeaderChecker incomingPacketLengths:vector ETV
attr interpolationmode none
attr recordingmode vector
attr source "packetLength(merge(packetPushedIn, packetPulledIn))"
attr title "incoming packet lengths"
attr unit b
vector 120 TwoMasterClocksTreeGptpShowcase.tsnClock1.eth[0].phyLayer.phyHeaderChecker incomingDataRate:vector ETV
attr interpolationmode linear
attr recordingmode vector
attr source "throughput(merge(packetPushedIn, packetPulledIn))"
attr title "incoming data rate"
attr unit bps
vector 121 TwoMasterClocksTreeGptpShowcase.tsnClock1.eth[0].phyLayer.phyHeaderChecker outgoingPacketLengths:vector ETV
attr interpolationmode none
attr recordingmode vector
attr source "packetLength(merge(packetPushedOut, packetPulledOut))"
attr title "outgoing packet lengths"
attr unit b
vector 122 TwoMasterClocksTreeGptpShowcase.tsnClock1.eth[0].phyLayer.phyHeaderChecker outgoingDataRate:vector ETV
attr interpolationmode linear
attr recordingmode vector
attr source "throughput(merge(packetPushedOut, packetPulledOut))"
attr title "outgoing data rate"
attr unit bps
vector 123 TwoMasterClocksTreeGptpShowcase.tsnClock1.eth[0].phyLayer.phyHeaderChecker droppedPacketLengths:vector ETV
attr interpolationmode none
attr recordingmode vector
attr source packetLength(packetDropped)
attr title "dropped packet lengths"
attr unit b
vector 124 TwoMasterClocksTreeGptpShowcase.tsnClock1.eth[0].phyLayer.phyHeaderChecker droppedDataRate:vector ETV
attr interpolationmode linear
attr recordingmode vector
attr source throughput(packetDropped)
attr title "dropped data rate"
attr unit bps
vector 125 TwoMasterClocksTreeGptpShowcase.tsnClock1.eth[0].phyLayer.phyHeaderChecker flowIncomingPacketLengths:vector ETV
attr interpolationmode none
attr recordingmode vector
attr source "packetLength(demuxFlow(merge(packetPushedIn, packetPulledIn)))"
attr title "flow specific incoming packet lengths"
attr unit b
vector 126 TwoMasterClocksTreeGptpShowcase.tsnClock1.eth[0].phyLayer.phyHeaderChecker flowIncomingDataRate:vector ETV
attr interpolationmode linear
attr recordingmode vector
attr source "throughput(demuxFlow(merge(packetPushedIn, packetPulledIn)))"
attr title "flow specific incoming data rate"
attr unit bps
vector 127 TwoMasterClocksTreeGptpShowcase.tsnClock1.eth[0].phyLayer.phyHeaderChecker flowOutgoingPacketLengths:vector ETV
attr interpolationmode none
attr recordingmode vector
attr source "packetLength(demuxFlow(merge(packetPushedOut, packetPulledOut)))"
attr title "flow specific outgoing packet lengths"
attr unit b
vector 128 TwoMasterClocksTreeGptpShowcase.tsnClock1.eth[0].phyLayer.phyHeaderChecker flowOutgoingDataRate:vector ETV
attr interpolationmode linear
attr recordingmode vector
attr source "throughput(demuxFlow(merge(packetPushedOut, packetPulledOut)))"
attr title "flow specific outgoing data rate"
attr unit bps
vector 129 TwoMasterClocksTreeGptpShowcase.tsnClock1.eth[0].phyLayer.phyHeaderChecker flowDroppedPacketLengths:vector ETV
attr interpolationmode none
attr recordingmode vector
attr source packetLength(demuxFlow(packetDropped))
attr title "flow specific dropped packet lengths"
attr unit b
vector 130 TwoMasterClocksTreeGptpShowcase.tsnClock1.eth[0].phyLayer.phyHeaderChecker flowDroppedDataRate:vector ETV
attr interpolationmode linear
attr recordingmode vector
attr source throughput(demuxFlow(packetDropped))
attr title "flow specific dropped data rate"
attr unit bps
vector 131 TwoMasterClocksTreeGptpShowcase.tsnClock1.eth[0].phyLayer.inboundEmitter incomingPacketLengths:vector ETV
attr interpolationmode none
attr recordingmode vector
attr source "packetLength(merge(packetPushedIn, packetPulledIn))"
attr title "incoming packet lengths"
attr unit b
vector 132 TwoMasterClocksTreeGptpShowcase.tsnClock1.eth[0].phyLayer.inboundEmitter incomingDataRate:vector ETV
attr interpolationmode linear
attr recordingmode vector
attr source "throughput(merge(packetPushedIn, packetPulledIn))"
attr title "incoming data rate"
attr unit bps
vector 133 TwoMasterClocksTreeGptpShowcase.tsnClock1.eth[0].phyLayer.inboundEmitter outgoingPacketLengths:vector ETV
attr interpolationmode none
attr recordingmode vector
attr source "packetLength(merge(packetPushedOut, packetPulledOut))"
attr title "outgoing packet lengths"
attr unit b
vector 134 TwoMasterClocksTreeGptpShowcase.tsnClock1.eth[0].phyLayer.inboundEmitter outgoingDataRate:vector ETV
attr interpolationmode linear
attr recordingmode vector
attr source "throughput(merge(packetPushedOut, packetPulledOut))"
attr title "outgoing data rate"
attr unit bps
vector 135 TwoMasterClocksTreeGptpShowcase.tsnClock1.eth[0].phyLayer.inboundEmitter flowIncomingPacketLengths:vector ETV
attr interpolationmode none
attr recordingmode vector
attr source "packetLength(demuxFlow(merge(packetPushedIn, packetPulledIn)))"
attr title "flow specific incoming packet lengths"
attr unit b
vector 136 TwoMasterClocksTreeGptpShowcase.tsnClock1.eth[0].phyLayer.inboundEmitter flowIncomingDataRate:vector ETV
attr interpolationmode linear
attr recordingmode vector
attr source "throughput(demuxFlow(merge(packetPushedIn, packetPulledIn)))"
attr title "flow specific incoming data rate"
attr unit bps
vector 137 TwoMasterClocksTreeGptpShowcase.tsnClock1.eth[0].phyLayer.inboundEmitter flowOutgoingPacketLengths:vector ETV
attr interpolationmode none
attr recordingmode vector
attr source "packetLength(demuxFlow(merge(packetPushedOut, packetPulledOut)))"
attr title "flow specific outgoing packet lengths"
attr unit b
vector 138 TwoMasterClocksTreeGptpShowcase.tsnClock1.eth[0].phyLayer.inboundEmitter flowOutgoingDataRate:vector ETV
attr interpolationmode linear
attr recordingmode vector
attr source "throughput(demuxFlow(merge(packetPushedOut, packetPulledOut)))"
attr title "flow specific outgoing data rate"
attr unit bps
vector 139 TwoMasterClocksTreeGptpShowcase.tsnClock1.eth[0].phyLayer.receiver throughput:vector ETV
attr interpolationmode linear
attr recordingmode vector
attr source throughput(receptionEnded)
attr title throughput
attr unit bps
vector 140 TwoMasterClocksTreeGptpShowcase.tsnClock1.eth[0].phyLayer.receiver receptionTime:vector ETV
attr interpolationmode none
attr recordingmode vector
attr source packetDuration(receptionEnded)
attr title "reception time"
attr unit s
vector 141 TwoMasterClocksTreeGptpShowcase.tsnClock1.eth[0].phyLayer.receiver flowReceptionTime:vector ETV
attr interpolationmode none
attr recordingmode vector
attr source packetDuration(demuxFlow(receptionEnded))
attr title "flow reception time"
attr unit s
vector 142 TwoMasterClocksTreeGptpShowcase.tsnClock1.eth[0] packetDropInterfaceDown:vector(packetBytes) ETV
attr interpolationmode none
attr recordingmode vector(packetBytes)
attr source packetDropReasonIsInterfaceDown(packetDropped)
attr title "packet drops: interface down, packetBytes"
vector 143 TwoMasterClocksTreeGptpShowcase.tsnClock1.eth[0] packetDropNoCarrier:vector(packetBytes) ETV
attr interpolationmode none
attr recordingmode vector(packetBytes)
attr source packetDropReasonIsNoCarrier(packetDropped)
attr title "packet drops: no carrier, packetBytes"
vector 144 TwoMasterClocksTreeGptpShowcase.tsnClock1.ipv4.ip packetDropAddressResolutionFailed:vector(packetBytes) ETV
attr interpolationmode none
attr recordingmode vector(packetBytes)
attr source packetDropReasonIsAddressResolutionFailed(packetDropped)
attr title "packet drop: address resolution failed, packetBytes"
vector 145 TwoMasterClocksTreeGptpShowcase.tsnClock1.ipv4.ip packetDropHopLimitReached:vector(packetBytes) ETV
attr interpolationmode none
attr recordingmode vector(packetBytes)
attr source packetDropReasonIsHopLimitReached(packetDropped)
attr title "packet drop: hop limit reached, packetBytes"
vector 146 TwoMasterClocksTreeGptpShowcase.tsnClock1.ipv4.ip packetDropForwardingDisabled:vector(packetBytes) ETV
attr interpolationmode none
attr recordingmode vector(packetBytes)
attr source packetDropReasonIsForwardingDisabled(packetDropped)
attr title "packet drop: forwarding disabled, packetBytes"
vector 147 TwoMasterClocksTreeGptpShowcase.tsnClock1.ipv4.ip packetDropNoInterfaceFound:vector(packetBytes) ETV
attr interpolationmode none
attr recordingmode vector(packetBytes)
attr source packetDropReasonIsNoInterfaceFound(packetDropped)
attr title "packet drop: no interface found, packetBytes"
vector 148 TwoMasterClocksTreeGptpShowcase.tsnClock1.ipv4.ip packetDropNoRouteFound:vector(packetBytes) ETV
attr interpolationmode none
attr recordingmode vector(packetBytes)
attr source packetDropReasonIsNoRouteFound(packetDropped)
attr title "packet drop: no route found, packetBytes"
vector 149 TwoMasterClocksTreeGptpShowcase.tsnClock1.ipv4.ip packetDropUndefined:vector(packetBytes) ETV
attr interpolationmode none
attr recordingmode vector(packetBytes)
attr source packetDropReasonIsUndefined(packetDropped)
attr title "packet drop: undefined, packetBytes"
vector 150 TwoMasterClocksTreeGptpShowcase.tsnClock1.udp packetSent:vector(packetBytes) ETV
attr interpolationmode none
attr recordingmode vector(packetBytes)
attr source packetSent
attr title "packets sent, packetBytes"
vector 151 TwoMasterClocksTreeGptpShowcase.tsnClock1.udp packetReceived:vector(packetBytes) ETV
attr interpolationmode none
attr recordingmode vector(packetBytes)
attr source packetReceived
attr title "packets received, packetBytes"
vector 152 TwoMasterClocksTreeGptpShowcase.tsnClock1.udp passedUpPk:vector(count) ETV
attr interpolationmode none
attr recordingmode vector(count)
attr source packetSentToUpper
attr title "packets passed up, count"
vector 153 TwoMasterClocksTreeGptpShowcase.tsnClock1.udp droppedPkWrongPort:vector(count) ETV
attr interpolationmode none
attr recordingmode vector(count)
attr source packetDropReasonIsNoPortFound(packetDropped)
attr title "packets dropped (wrong port), count"
vector 154 TwoMasterClocksTreeGptpShowcase.tsnClock1.udp droppedPkBadChecksum:vector(count) ETV
attr interpolationmode none
attr recordingmode vector(count)
attr source packetDropReasonIsIncorrectlyReceived(packetDropped)
attr title "packets dropped (checksum error), count"
vector 155 TwoMasterClocksTreeGptpShowcase.tsnClock1.gptp localTime:vector ETV
attr interpolationmode linear
attr recordingmode vector
vector 156 TwoMasterClocksTreeGptpShowcase.tsnClock1.gptp timeDifference:vector ETV
attr interpolationmode linear
attr recordingmode vector
vector 157 TwoMasterClocksTreeGptpShowcase.tsnClock1.gptp rateRatio:vector ETV
attr interpolationmode sample-hold
attr recordingmode vector
vector 158 TwoMasterClocksTreeGptpShowcase.tsnClock1.gptp peerDelay:vector ETV
attr interpolationmode sample-hold
attr recordingmode vector
vector 159 TwoMasterClocksTreeGptpShowcase.tsnClock1.gptp packetDropNotAddressedToUs:vector(packetBytes) ETV
attr interpolationmode none
attr recordingmode vector(packetBytes)
attr source packetDropReasonIsNotAddressedToUs(packetDropped)
attr title "packet drop: not addressed to us, packetBytes"
vector 160 TwoMasterClocksTreeGptpShowcase.tsnClock2.clock.oscillator driftRateChanged:vector ETV
attr interpolationmode sample-hold
attr recordingmode vector
attr title "Oscillator drift rate"
attr unit ppm
vector 161 TwoMasterClocksTreeGptpShowcase.tsnClock2.clock timeChanged:vector ETV
attr interpolationmode linear
attr recordingmode vector
attr title "Clock time"
vector 162 TwoMasterClocksTreeGptpShowcase.tsnClock2.ethernet.macHeaderInserter incomingPacketLengths:vector ETV
attr interpolationmode none
attr recordingmode vector
attr source "packetLength(merge(packetPushedIn, packetPulledIn))"
attr title "incoming packet lengths"
attr unit b
vector 163 TwoMasterClocksTreeGptpShowcase.tsnClock2.ethernet.macHeaderInserter incomingDataRate:vector ETV
attr interpolationmode linear
attr recordingmode vector
attr source "throughput(merge(packetPushedIn, packetPulledIn))"
attr title "incoming data rate"
attr unit bps
vector 164 TwoMasterClocksTreeGptpShowcase.tsnClock2.ethernet.macHeaderInserter outgoingPacketLengths:vector ETV
attr interpolationmode none
attr recordingmode vector
attr source "packetLength(merge(packetPushedOut, packetPulledOut))"
attr title "outgoing packet lengths"
attr unit b
vector 165 TwoMasterClocksTreeGptpShowcase.tsnClock2.ethernet.macHeaderInserter outgoingDataRate:vector ETV
attr interpolationmode linear
attr recordingmode vector
attr source "throughput(merge(packetPushedOut, packetPulledOut))"
attr title "outgoing data rate"
attr unit bps
vector 166 TwoMasterClocksTreeGptpShowcase.tsnClock2.ethernet.macHeaderInserter flowIncomingPacketLengths:vector ETV
attr interpolationmode none
attr recordingmode vector
attr source "packetLength(demuxFlow(merge(packetPushedIn, packetPulledIn)))"
attr title "flow specific incoming packet lengths"
attr unit b
vector 167 TwoMasterClocksTreeGptpShowcase.tsnClock2.ethernet.macHeaderInserter flowIncomingDataRate:vector ETV
attr interpolationmode linear
attr recordingmode vector
attr source "throughput(demuxFlow(merge(packetPushedIn, packetPulledIn)))"
attr title "flow specific incoming data rate"
attr unit bps
vector 168 TwoMasterClocksTreeGptpShowcase.tsnClock2.ethernet.macHeaderInserter flowOutgoingPacketLengths:vector ETV
attr interpolationmode none
attr recordingmode vector
attr source "packetLength(demuxFlow(merge(packetPushedOut, packetPulledOut)))"
attr title "flow specific outgoing packet lengths"
attr unit b
vector 169 TwoMasterClocksTreeGptpShowcase.tsnClock2.ethernet.macHeaderInserter flowOutgoingDataRate:vector ETV
attr interpolationmode linear
attr recordingmode vector
attr source "throughput(demuxFlow(merge(packetPushedOut, packetPulledOut)))"
attr title "flow specific outgoing data rate"
attr unit bps
vector 170 TwoMasterClocksTreeGptpShowcase.tsnClock2.ethernet.paddingInserter incomingPacketLengths:vector ETV
attr interpolationmode none
attr recordingmode vector
attr source "packetLength(merge(packetPushedIn, packetPulledIn))"
attr title "incoming packet lengths"
attr unit b
vector 171 TwoMasterClocksTreeGptpShowcase.tsnClock2.ethernet.paddingInserter incomingDataRate:vector ETV
attr interpolationmode linear
attr recordingmode vector
attr source "throughput(merge(packetPushedIn, packetPulledIn))"
attr title "incoming data rate"
attr unit bps
vector 172 TwoMasterClocksTreeGptpShowcase.tsnClock2.ethernet.paddingInserter outgoingPacketLengths:vector ETV
attr interpolationmode none
attr recordingmode vector
attr source "packetLength(merge(packetPushedOut, packetPulledOut))"
attr title "outgoing packet lengths"
attr unit b
vector 173 TwoMasterClocksTreeGptpShowcase.tsnClock2.ethernet.paddingInserter outgoingDataRate:vector ETV
attr interpolationmode linear
attr recordingmode vector
attr source "throughput(merge(packetPushedOut, packetPulledOut))"
attr title "outgoing data rate"
attr unit bps
vector 174 TwoMasterClocksTreeGptpShowcase.tsnClock2.ethernet.paddingInserter flowIncomingPacketLengths:vector ETV
attr interpolationmode none
attr recordingmode vector
attr source "packetLength(demuxFlow(merge(packetPushedIn, packetPulledIn)))"
attr title "flow specific incoming packet lengths"
attr unit b
vector 175 TwoMasterClocksTreeGptpShowcase.tsnClock2.ethernet.paddingInserter flowIncomingDataRate:vector ETV
attr interpolationmode linear
attr recordingmode vector
attr source "throughput(demuxFlow(merge(packetPushedIn, packetPulledIn)))"
attr title "flow specific incoming data rate"
attr unit bps
vector 176 TwoMasterClocksTreeGptpShowcase.tsnClock2.ethernet.paddingInserter flowOutgoingPacketLengths:vector ETV
attr interpolationmode none
attr recordingmode vector
attr source "packetLength(demuxFlow(merge(packetPushedOut, packetPulledOut)))"
attr title "flow specific outgoing packet lengths"
attr unit b
vector 177 TwoMasterClocksTreeGptpShowcase.tsnClock2.ethernet.paddingInserter flowOutgoingDataRate:vector ETV
attr interpolationmode linear
attr recordingmode vector
attr source "throughput(demuxFlow(merge(packetPushedOut, packetPulledOut)))"
attr title "flow specific outgoing data rate"
attr unit bps
vector 178 TwoMasterClocksTreeGptpShowcase.tsnClock2.ethernet.fcsInserter incomingPacketLengths:vector ETV
attr interpolationmode none
attr recordingmode vector
attr source "packetLength(merge(packetPushedIn, packetPulledIn))"
attr title "incoming packet lengths"
attr unit b
vector 179 TwoMasterClocksTreeGptpShowcase.tsnClock2.ethernet.fcsInserter incomingDataRate:vector ETV
attr interpolationmode linear
attr recordingmode vector
attr source "throughput(merge(packetPushedIn, packetPulledIn))"
attr title "incoming data rate"
attr unit bps
vector 180 TwoMasterClocksTreeGptpShowcase.tsnClock2.ethernet.fcsInserter outgoingPacketLengths:vector ETV
attr interpolationmode none
attr recordingmode vector
attr source "packetLength(merge(packetPushedOut, packetPulledOut))"
attr title "outgoing packet lengths"
attr unit b
vector 181 TwoMasterClocksTreeGptpShowcase.tsnClock2.ethernet.fcsInserter outgoingDataRate:vector ETV
attr interpolationmode linear
attr recordingmode vector
attr source "throughput(merge(packetPushedOut, packetPulledOut))"
attr title "outgoing data rate"
attr unit bps
vector 182 TwoMasterClocksTreeGptpShowcase.tsnClock2.ethernet.fcsInserter flowIncomingPacketLengths:vector ETV
attr interpolationmode none
attr recordingmode vector
attr source "packetLength(demuxFlow(merge(packetPushedIn, packetPulledIn)))"
attr title "flow specific incoming packet lengths"
attr unit b
vector 183 TwoMasterClocksTreeGptpShowcase.tsnClock2.ethernet.fcsInserter flowIncomingDataRate:vector ETV
attr interpolationmode linear
attr recordingmode vector
attr source "throughput(demuxFlow(merge(packetPushedIn, packetPulledIn)))"
attr title "flow specific incoming data rate"
attr unit bps
vector 184 TwoMasterClocksTreeGptpShowcase.tsnClock2.ethernet.fcsInserter flowOutgoingPacketLengths:vector ETV
attr interpolationmode none
attr recordingmode vector
attr source "packetLength(demuxFlow(merge(packetPushedOut, packetPulledOut)))"
attr title "flow specific outgoing packet lengths"
attr unit b
vector 185 TwoMasterClocksTreeGptpShowcase.tsnClock2.ethernet.fcsInserter flowOutgoingDataRate:vector ETV
attr interpolationmode linear
attr recordingmode vector
attr source "throughput(demuxFlow(merge(packetPushedOut, packetPulledOut)))"
attr title "flow specific outgoing data rate"
attr unit bps
vector 186 TwoMasterClocksTreeGptpShowcase.tsnClock2.ethernet.macHeaderChecker incomingPacketLengths:vector ETV
attr interpolationmode none
attr recordingmode vector
attr source "packetLength(merge(packetPushedIn, packetPulledIn))"
attr title "incoming packet lengths"
attr unit b
vector 187 TwoMasterClocksTreeGptpShowcase.tsnClock2.ethernet.macHeaderChecker incomingDataRate:vector ETV
attr interpolationmode linear
attr recordingmode vector
attr source "throughput(merge(packetPushedIn, packetPulledIn))"
attr title "incoming data rate"
attr unit bps
vector 188 TwoMasterClocksTreeGptpShowcase.tsnClock2.ethernet.macHeaderChecker outgoingPacketLengths:vector ETV
attr interpolationmode none
attr recordingmode vector
attr source "packetLength(merge(packetPushedOut, packetPulledOut))"
attr title "outgoing packet lengths"
attr unit b
vector 189 TwoMasterClocksTreeGptpShowcase.tsnClock2.ethernet.macHeaderChecker outgoingDataRate:vector ETV
attr interpolationmode linear
attr recordingmode vector
attr source "throughput(merge(packetPushedOut, packetPulledOut))"
attr title "outgoing data rate"
attr unit bps
vector 190 TwoMasterClocksTreeGptpShowcase.tsnClock2.ethernet.macHeaderChecker droppedPacketLengths:vector ETV
attr interpolationmode none
attr recordingmode vector
attr source packetLength(packetDropped)
attr title "dropped packet lengths"
attr unit b
vector 191 TwoMasterClocksTreeGptpShowcase.tsnClock2.ethernet.macHeaderChecker droppedDataRate:vector ETV
attr interpolationmode linear
attr recordingmode vector
attr source throughput(packetDropped)
attr title "dropped data rate"
attr unit bps
vector 192 TwoMasterClocksTreeGptpShowcase.tsnClock2.ethernet.macHeaderChecker flowIncomingPacketLengths:vector ETV
attr interpolationmode none
attr recordingmode vector
attr source "packetLength(demuxFlow(merge(packetPushedIn, packetPulledIn)))"
attr title "flow specific incoming packet lengths"
attr unit b
vector 193 TwoMasterClocksTreeGptpShowcase.tsnClock2.ethernet.macHeaderChecker flowIncomingDataRate:vector ETV
attr interpolationmode linear
attr recordingmode vector
attr source "throughput(demuxFlow(merge(packetPushedIn, packetPulledIn)))"
attr title "flow specific incoming data rate"
attr unit bps
vector 194 TwoMasterClocksTreeGptpShowcase.tsnClock2.ethernet.macHeaderChecker flowOutgoingPacketLengths:vector ETV
attr interpolationmode none
attr recordingmode vector
attr source "packetLength(demuxFlow(merge(packetPushedOut, packetPulledOut)))"
attr title "flow specific outgoing packet lengths"
attr unit b
vector 195 TwoMasterClocksTreeGptpShowcase.tsnClock2.ethernet.macHeaderChecker flowOutgoingDataRate:vector ETV
attr interpolationmode linear
attr recordingmode vector
attr source "throughput(demuxFlow(merge(packetPushedOut, packetPulledOut)))"
attr title "flow specific outgoing data rate"
attr unit bps
vector 196 TwoMasterClocksTreeGptpShowcase.tsnClock2.ethernet.macHeaderChecker flowDroppedPacketLengths:vector ETV
attr interpolationmode none
attr recordingmode vector
attr source packetLength(demuxFlow(packetDropped))
attr title "flow specific dropped packet lengths"
attr unit b
vector 197 TwoMasterClocksTreeGptpShowcase.tsnClock2.ethernet.macHeaderChecker flowDroppedDataRate:vector ETV
attr interpolationmode linear
attr recordingmode vector
attr source throughput(demuxFlow(packetDropped))
attr title "flow specific dropped data rate"
attr unit bps
vector 198 TwoMasterClocksTreeGptpShowcase.tsnClock2.ethernet.fcsChecker incomingPacketLengths:vector ETV
attr interpolationmode none
attr recordingmode vector
attr source "packetLength(merge(packetPushedIn, packetPulledIn))"
attr title "incoming packet lengths"
attr unit b
vector 199 TwoMasterClocksTreeGptpShowcase.tsnClock2.ethernet.fcsChecker incomingDataRate:vector ETV
attr interpolationmode linear
attr recordingmode vector
attr source "throughput(merge(packetPushedIn, packetPulledIn))"
attr title "incoming data rate"
attr unit bps
vector 200 TwoMasterClocksTreeGptpShowcase.tsnClock2.ethernet.fcsChecker outgoingPacketLengths:vector ETV
attr interpolationmode none
attr recordingmode vector
attr source "packetLength(merge(packetPushedOut, packetPulledOut))"
attr title "outgoing packet lengths"
attr unit b
vector 201 TwoMasterClocksTreeGptpShowcase.tsnClock2.ethernet.fcsChecker outgoingDataRate:vector ETV
attr interpolationmode linear
attr recordingmode vector
attr source "throughput(merge(packetPushedOut, packetPulledOut))"
attr title "outgoing data rate"
attr unit bps
vector 202 TwoMasterClocksTreeGptpShowcase.tsnClock2.ethernet.fcsChecker droppedPacketLengths:vector ETV
attr interpolationmode none
attr recordingmode vector
attr source packetLength(packetDropped)
attr title "dropped packet lengths"
attr unit b
vector 203 TwoMasterClocksTreeGptpShowcase.tsnClock2.ethernet.fcsChecker droppedDataRate:vector ETV
attr interpolationmode linear
attr recordingmode vector
attr source throughput(packetDropped)
attr title "dropped data rate"
attr unit bps
vector 204 TwoMasterClocksTreeGptpShowcase.tsnClock2.ethernet.fcsChecker flowIncomingPacketLengths:vector ETV
attr interpolationmode none
attr recordingmode vector
attr source "packetLength(demuxFlow(merge(packetPushedIn, packetPulledIn)))"
attr title "flow specific incoming packet lengths"
attr unit b
vector 205 TwoMasterClocksTreeGptpShowcase.tsnClock2.ethernet.fcsChecker flowIncomingDataRate:vector ETV
attr interpolationmode linear
attr recordingmode vector
attr source "throughput(demuxFlow(merge(packetPushedIn, packetPulledIn)))"
attr title "flow specific incoming data rate"
attr unit bps
vector 206 TwoMasterClocksTreeGptpShowcase.tsnClock2.ethernet.fcsChecker flowOutgoingPacketLengths:vector ETV
attr interpolationmode none
attr recordingmode vector
attr source "packetLength(demuxFlow(merge(packetPushedOut, packetPulledOut)))"
attr title "flow specific outgoing packet lengths"
attr unit b
vector 207 TwoMasterClocksTreeGptpShowcase.tsnClock2.ethernet.fcsChecker flowOutgoingDataRate:vector ETV
attr interpolationmode linear
attr recordingmode vector
attr source "throughput(demuxFlow(merge(packetPushedOut, packetPulledOut)))"
attr title "flow specific outgoing data rate"
attr unit bps
vector 208 TwoMasterClocksTreeGptpShowcase.tsnClock2.ethernet.fcsChecker flowDroppedPacketLengths:vector ETV
attr interpolationmode none
attr recordingmode vector
attr source packetLength(demuxFlow(packetDropped))
attr title "flow specific dropped packet lengths"
attr unit b
vector 209 TwoMasterClocksTreeGptpShowcase.tsnClock2.ethernet.fcsChecker flowDroppedDataRate:vector ETV
attr interpolationmode linear
attr recordingmode vector
attr source throughput(demuxFlow(packetDropped))
attr title "flow specific dropped data rate"
attr unit bps
vector 210 TwoMasterClocksTreeGptpShowcase.tsnClock2.lo[0].lo rcvdPkFromHl:vector(packetBytes) ETV
attr interpolationmode none
attr recordingmode vector(packetBytes)
attr source packetReceivedFromUpper
attr title "packets received from higher layer, packetBytes"
vector 211 TwoMasterClocksTreeGptpShowcase.tsnClock2.lo[0].lo passedUpPk:vector(packetBytes) ETV
attr interpolationmode none
attr recordingmode vector(packetBytes)
attr source packetSentToUpper
attr title "packets passed to higher layer, packetBytes"
vector 212 TwoMasterClocksTreeGptpShowcase.tsnClock2.lo[0] packetDropInterfaceDown:vector(packetBytes) ETV
attr interpolationmode none
attr recordingmode vector(packetBytes)
attr source packetDropReasonIsInterfaceDown(packetDropped)
attr title "packet drops: interface down, packetBytes"
vector 213 TwoMasterClocksTreeGptpShowcase.tsnClock2.lo[0] packetDropNoCarrier:vector(packetBytes) ETV
attr interpolationmode none
attr recordingmode vector(packetBytes)
attr source packetDropReasonIsNoCarrier(packetDropped)
attr title "packet drops: no carrier, packetBytes"
vector 214 TwoMasterClocksTreeGptpShowcase.tsnClock2.eth[0].macLayer.queue queueLength:vector ETV
attr autoWarmupFilter false
attr interpolationmode sample-hold
attr recordingmode vector
attr source "warmup(atomic(constant0(packetPushEnded) + count(packetPushStarted) - count(packetPulled) - count(packetRemoved) - count(packetDropped)))"
attr title "queue length"
attr unit pk
vector 215 TwoMasterClocksTreeGptpShowcase.tsnClock2.eth[0].macLayer.queue queueBitLength:vector ETV
attr autoWarmupFilter false
attr interpolationmode sample-hold
attr recordingmode vector
attr source "warmup(atomic(constant0(packetPushEnded) + sum(packetLength(packetPushStarted)) - sum(packetLength(packetPulled)) - sum(packetLength(packetRemoved)) - sum(packetLength(packetDropped))))"
attr title "queue bit length"
attr unit b
vector 216 TwoMasterClocksTreeGptpShowcase.tsnClock2.eth[0].macLayer.queue queueingTime:vector ETV
attr interpolationmode none
attr recordingmode vector
attr source queueingTime(packetPulled)
attr title "queueing times"
attr unit s
vector 217 TwoMasterClocksTreeGptpShowcase.tsnClock2.eth[0].macLayer.queue incomingPacketLengths:vector ETV
attr interpolationmode none
attr recordingmode vector
attr source packetLength(packetPushStarted)
attr title "incoming packet lengths"
attr unit b
vector 218 TwoMasterClocksTreeGptpShowcase.tsnClock2.eth[0].macLayer.queue incomingDataRate:vector ETV
attr interpolationmode linear
attr recordingmode vector
attr source throughput(packetPushStarted)
attr title "incoming datarate"
attr unit bps
vector 219 TwoMasterClocksTreeGptpShowcase.tsnClock2.eth[0].macLayer.queue outgoingPacketLengths:vector ETV
attr interpolationmode none
attr recordingmode vector
attr source packetLength(packetPulled)
attr title "outgoing packet lengths"
attr unit b
vector 220 TwoMasterClocksTreeGptpShowcase.tsnClock2.eth[0].macLayer.queue outgoingDataRate:vector ETV
attr interpolationmode linear
attr recordingmode vector
attr source throughput(packetPulled)
attr title "outgoing datarate"
attr unit bps
vector 221 TwoMasterClocksTreeGptpShowcase.tsnClock2.eth[0].macLayer.queue droppedPacketLengthsQueueOverflow:vector ETV
attr interpolationmode none
attr recordingmode vector
attr source packetLength(packetDropReasonIsQueueOverflow(packetDropped))
attr title "dropped packet lengths: queue overflow"
attr unit b
vector 222 TwoMasterClocksTreeGptpShowcase.tsnClock2.eth[0].macLayer.queue flowQueueingTime:vector ETV
attr interpolationmode none
attr recordingmode vector
attr source queueingTime(demuxFlow(packetPulled))
attr title "flow queueing times"
attr unit s
vector 223 TwoMasterClocksTreeGptpShowcase.tsnClock2.eth[0].macLayer.queue flowIncomingDataRate:vector ETV
attr interpolationmode linear
attr recordingmode vector
attr source throughput(flowPacketLength(demuxFlow(packetPushStarted)))
attr title "flow specific incoming data rate"
attr unit bps
vector 224 TwoMasterClocksTreeGptpShowcase.tsnClock2.eth[0].macLayer.queue flowOutgoingDataRate:vector ETV
attr interpolationmode linear
attr recordingmode vector
attr source throughput(flowPacketLength(demuxFlow(packetPulled)))
attr title "flow specific outgoing data rate"
attr unit bps
vector 225 TwoMasterClocksTreeGptpShowcase.tsnClock2.eth[0].macLayer.server incomingPacketLengths:vector ETV
attr interpolationmode none
attr recordingmode vector
attr source packetLength(packetPulled)
attr title "incoming packet lengths"
attr unit b
vector 226 TwoMasterClocksTreeGptpShowcase.tsnClock2.eth[0].macLayer.server incomingDataRate:vector ETV
attr interpolationmode linear
attr recordingmode vector
attr source throughput(packetPulled)
attr title "incoming datarate"
attr unit bps
vector 227 TwoMasterClocksTreeGptpShowcase.tsnClock2.eth[0].macLayer.server outgoingPacketLengths:vector ETV
attr interpolationmode none
attr recordingmode vector
attr source packetLength(packetPushed)
attr title "outgoing packet lengths"
attr unit b
vector 228 TwoMasterClocksTreeGptpShowcase.tsnClock2.eth[0].macLayer.server outgoingDataRate:vector ETV
attr interpolationmode linear
attr recordingmode vector
attr source throughput(packetPushed)
attr title "outgoing datarate"
attr unit bps
vector 229 TwoMasterClocksTreeGptpShowcase.tsnClock2.eth[0].macLayer.outboundEmitter incomingPacketLengths:vector ETV
attr interpolationmode none
attr recordingmode vector
attr source "packetLength(merge(packetPushedIn, packetPulledIn))"
attr title "incoming packet lengths"
attr unit b
vector 230 TwoMasterClocksTreeGptpShowcase.tsnClock2.eth[0].macLayer.outboundEmitter incomingDataRate:vector ETV
attr interpolationmode linear
attr recordingmode vector
attr source "throughput(merge(packetPushedIn, packetPulledIn))"
attr title "incoming data rate"
attr unit bps
vector 231 TwoMasterClocksTreeGptpShowcase.tsnClock2.eth[0].macLayer.outboundEmitter outgoingPacketLengths:vector ETV
attr interpolationmode none
attr recordingmode vector
attr source "packetLength(merge(packetPushedOut, packetPulledOut))"
attr title "outgoing packet lengths"
attr unit b
vector 232 TwoMasterClocksTreeGptpShowcase.tsnClock2.eth[0].macLayer.outboundEmitter outgoingDataRate:vector ETV
attr interpolationmode linear
attr recordingmode vector
attr source "throughput(merge(packetPushedOut, packetPulledOut))"
attr title "outgoing data rate"
attr unit bps
vector 233 TwoMasterClocksTreeGptpShowcase.tsnClock2.eth[0].macLayer.outboundEmitter flowIncomingPacketLengths:vector ETV
attr interpolationmode none
attr recordingmode vector
attr source "packetLength(demuxFlow(merge(packetPushedIn, packetPulledIn)))"
attr title "flow specific incoming packet lengths"
attr unit b
vector 234 TwoMasterClocksTreeGptpShowcase.tsnClock2.eth[0].macLayer.outboundEmitter flowIncomingDataRate:vector ETV
attr interpolationmode linear
attr recordingmode vector
attr source "throughput(demuxFlow(merge(packetPushedIn, packetPulledIn)))"
attr title "flow specific incoming data rate"
attr unit bps
vector 235 TwoMasterClocksTreeGptpShowcase.tsnClock2.eth[0].macLayer.outboundEmitter flowOutgoingPacketLengths:vector ETV
attr interpolationmode none
attr recordingmode vector
attr source "packetLength(demuxFlow(merge(packetPushedOut, packetPulledOut)))"
attr title "flow specific outgoing packet lengths"
attr unit b
vector 236 TwoMasterClocksTreeGptpShowcase.tsnClock2.eth[0].macLayer.outboundEmitter flowOutgoingDataRate:vector ETV
attr interpolationmode linear
attr recordingmode vector
attr source "throughput(demuxFlow(merge(packetPushedOut, packetPulledOut)))"
attr title "flow specific outgoing data rate"
attr unit bps
vector 237 TwoMasterClocksTreeGptpShowcase.tsnClock2.eth[0].macLayer.fcsChecker incomingPacketLengths:vector ETV
attr interpolationmode none
attr recordingmode vector
attr source "packetLength(merge(packetPushedIn, packetPulledIn))"
attr title "incoming packet lengths"
attr unit b
vector 238 TwoMasterClocksTreeGptpShowcase.tsnClock2.eth[0].macLayer.fcsChecker incomingDataRate:vector ETV
attr interpolationmode linear
attr recordingmode vector
attr source "throughput(merge(packetPushedIn, packetPulledIn))"
attr title "incoming data rate"
attr unit bps
vector 239 TwoMasterClocksTreeGptpShowcase.tsnClock2.eth[0].macLayer.fcsChecker outgoingPacketLengths:vector ETV
attr interpolationmode none
attr recordingmode vector
attr source "packetLength(merge(packetPushedOut, packetPulledOut))"
attr title "outgoing packet lengths"
attr unit b
vector 240 TwoMasterClocksTreeGptpShowcase.tsnClock2.eth[0].macLayer.fcsChecker outgoingDataRate:vector ETV
attr interpolationmode linear
attr recordingmode vector
attr source "throughput(merge(packetPushedOut, packetPulledOut))"
attr title "outgoing data rate"
attr unit bps
vector 241 TwoMasterClocksTreeGptpShowcase.tsnClock2.eth[0].macLayer.fcsChecker droppedPacketLengths:vector ETV
attr interpolationmode none
attr recordingmode vector
attr source packetLength(packetDropped)
attr title "dropped packet lengths"
attr unit b
vector 242 TwoMasterClocksTreeGptpShowcase.tsnClock2.eth[0].macLayer.fcsChecker droppedDataRate:vector ETV
attr interpolationmode linear
attr recordingmode vector
attr source throughput(packetDropped)
attr title "dropped data rate"
attr unit bps
vector 243 TwoMasterClocksTreeGptpShowcase.tsnClock2.eth[0].macLayer.fcsChecker flowIncomingPacketLengths:vector ETV
attr interpolationmode none
attr recordingmode vector
attr source "packetLength(demuxFlow(merge(packetPushedIn, packetPulledIn)))"
attr title "flow specific incoming packet lengths"
attr unit b
vector 244 TwoMasterClocksTreeGptpShowcase.tsnClock2.eth[0].macLayer.fcsChecker flowIncomingDataRate:vector ETV
attr interpolationmode linear
attr recordingmode vector
attr source "throughput(demuxFlow(merge(packetPushedIn, packetPulledIn)))"
attr title "flow specific incoming data rate"
attr unit bps
vector 245 TwoMasterClocksTreeGptpShowcase.tsnClock2.eth[0].macLayer.fcsChecker flowOutgoingPacketLengths:vector ETV
attr interpolationmode none
attr recordingmode vector
attr source "packetLength(demuxFlow(merge(packetPushedOut, packetPulledOut)))"
attr title "flow specific outgoing packet lengths"
attr unit b
vector 246 TwoMasterClocksTreeGptpShowcase.tsnClock2.eth[0].macLayer.fcsChecker flowOutgoingDataRate:vector ETV
attr interpolationmode linear
attr recordingmode vector
attr source "throughput(demuxFlow(merge(packetPushedOut, packetPulledOut)))"
attr title "flow specific outgoing data rate"
attr unit bps
vector 247 TwoMasterClocksTreeGptpShowcase.tsnClock2.eth[0].macLayer.fcsChecker flowDroppedPacketLengths:vector ETV
attr interpolationmode none
attr recordingmode vector
attr source packetLength(demuxFlow(packetDropped))
attr title "flow specific dropped packet lengths"
attr unit b
vector 248 TwoMasterClocksTreeGptpShowcase.tsnClock2.eth[0].macLayer.fcsChecker flowDroppedDataRate:vector ETV
attr interpolationmode linear
attr recordingmode vector
attr source throughput(demuxFlow(packetDropped))
attr title "flow specific dropped data rate"
attr unit bps
vector 249 TwoMasterClocksTreeGptpShowcase.tsnClock2.eth[0].macLayer.inboundEmitter incomingPacketLengths:vector ETV
attr interpolationmode none
attr recordingmode vector
attr source "packetLength(merge(packetPushedIn, packetPulledIn))"
attr title "incoming packet lengths"
attr unit b
vector 250 TwoMasterClocksTreeGptpShowcase.tsnClock2.eth[0].macLayer.inboundEmitter incomingDataRate:vector ETV
attr interpolationmode linear
attr recordingmode vector
attr source "throughput(merge(packetPushedIn, packetPulledIn))"
attr title "incoming data rate"
attr unit bps
vector 251 TwoMasterClocksTreeGptpShowcase.tsnClock2.eth[0].macLayer.inboundEmitter outgoingPacketLengths:vector ETV
attr interpolationmode none
attr recordingmode vector
attr source "packetLength(merge(packetPushedOut, packetPulledOut))"
attr title "outgoing packet lengths"
attr unit b
vector 252 TwoMasterClocksTreeGptpShowcase.tsnClock2.eth[0].macLayer.inboundEmitter outgoingDataRate:vector ETV
attr interpolationmode linear
attr recordingmode vector
attr source "throughput(merge(packetPushedOut, packetPulledOut))"
attr title "outgoing data rate"
attr unit bps
vector 253 TwoMasterClocksTreeGptpShowcase.tsnClock2.eth[0].macLayer.inboundEmitter flowIncomingPacketLengths:vector ETV
attr interpolationmode none
attr recordingmode vector
attr source "packetLength(demuxFlow(merge(packetPushedIn, packetPulledIn)))"
attr title "flow specific incoming packet lengths"
attr unit b
vector 254 TwoMasterClocksTreeGptpShowcase.tsnClock2.eth[0].macLayer.inboundEmitter flowIncomingDataRate:vector ETV
attr interpolationmode linear
attr recordingmode vector
attr source "throughput(demuxFlow(merge(packetPushedIn, packetPulledIn)))"
attr title "flow specific incoming data rate"
attr unit bps
vector 255 TwoMasterClocksTreeGptpShowcase.tsnClock2.eth[0].macLayer.inboundEmitter flowOutgoingPacketLengths:vector ETV
attr interpolationmode none
attr recordingmode vector
attr source "packetLength(demuxFlow(merge(packetPushedOut, packetPulledOut)))"
attr title "flow specific outgoing packet lengths"
attr unit b
vector 256 TwoMasterClocksTreeGptpShowcase.tsnClock2.eth[0].macLayer.inboundEmitter flowOutgoingDataRate:vector ETV
attr interpolationmode linear
attr recordingmode vector
attr source "throughput(demuxFlow(merge(packetPushedOut, packetPulledOut)))"
attr title "flow specific outgoing data rate"
attr unit bps
vector 257 TwoMasterClocksTreeGptpShowcase.tsnClock2.eth[0].phyLayer.phyHeaderInserter incomingPacketLengths:vector ETV
attr interpolationmode none
attr recordingmode vector
attr source "packetLength(merge(packetPushedIn, packetPulledIn))"
attr title "incoming packet lengths"
attr unit b
vector 258 TwoMasterClocksTreeGptpShowcase.tsnClock2.eth[0].phyLayer.phyHeaderInserter incomingDataRate:vector ETV
attr interpolationmode linear
attr recordingmode vector
attr source "throughput(merge(packetPushedIn, packetPulledIn))"
attr title "incoming data rate"
attr unit bps
vector 259 TwoMasterClocksTreeGptpShowcase.tsnClock2.eth[0].phyLayer.phyHeaderInserter outgoingPacketLengths:vector ETV
attr interpolationmode none
attr recordingmode vector
attr source "packetLength(merge(packetPushedOut, packetPulledOut))"
attr title "outgoing packet lengths"
attr unit b
vector 260 TwoMasterClocksTreeGptpShowcase.tsnClock2.eth[0].phyLayer.phyHeaderInserter outgoingDataRate:vector ETV
attr interpolationmode linear
attr recordingmode vector
attr source "throughput(merge(packetPushedOut, packetPulledOut))"
attr title "outgoing data rate"
attr unit bps
vector 261 TwoMasterClocksTreeGptpShowcase.tsnClock2.eth[0].phyLayer.phyHeaderInserter flowIncomingPacketLengths:vector ETV
attr interpolationmode none
attr recordingmode vector
attr source "packetLength(demuxFlow(merge(packetPushedIn, packetPulledIn)))"
attr title "flow specific incoming packet lengths"
attr unit b
vector 262 TwoMasterClocksTreeGptpShowcase.tsnClock2.eth[0].phyLayer.phyHeaderInserter flowIncomingDataRate:vector ETV
attr interpolationmode linear
attr recordingmode vector
attr source "throughput(demuxFlow(merge(packetPushedIn, packetPulledIn)))"
attr title "flow specific incoming data rate"
attr unit bps
vector 263 TwoMasterClocksTreeGptpShowcase.tsnClock2.eth[0].phyLayer.phyHeaderInserter flowOutgoingPacketLengths:vector ETV
attr interpolationmode none
attr recordingmode vector
attr source "packetLength(demuxFlow(merge(packetPushedOut, packetPulledOut)))"
attr title "flow specific outgoing packet lengths"
attr unit b
[...]
1846	181	0.000120896739	544
1846	238	0.000128256739	544
1846	282	0.000135616739	544
1846	302	0.000142976739	544
1846	402	0.125020875626	480
1846	438	0.125029995626	720
1846	482	0.125036715626	480
1846	507	0.125045835626	720
1846	606	0.250020875691	480
1846	642	0.250029995691	720
1846	686	0.250036715691	480
1846	711	0.250045835691	720
1846	810	0.375020451122	480
1846	846	0.375029571122	720
1846	890	0.375036291122	480
1846	915	0.375045411122	720
1846	1020	0.500020225972	480
1846	1056	0.500029345972	720
1846	1094	0.500036065972	480
1846	1119	0.500045185972	720
1846	1218	0.62501961126	480
1846	1254	0.62502873126	720
1846	1298	0.62503545126	480
1846	1323	0.62504457126	720
1846	1422	0.750018940515	480
1846	1458	0.750028060515	720
1846	1502	0.750034780515	480
1846	1527	0.750043900515	720
1846	1611	0.875018677062	480
1846	1647	0.875027797062	720
1846	1694	0.875034517062	480
1846	1723	0.875043637062	720
1847	402	0.1	21760
1847	606	0.2	24000
1847	810	0.3	24000
1847	1020	0.4	24000
1847	1020	0.5	0
1847	1218	0.6	24000
1847	1422	0.7	24000
1847	1611	0.8	24000
1848	181	0.000120896739	432
1848	238	0.000128256739	432
1848	282	0.000135616739	432
1848	302	0.000142976739	432
1848	402	0.125020875626	368
1848	438	0.125029995626	608
1848	482	0.125036715626	368
1848	507	0.125045835626	608
1848	606	0.250020875691	368
1848	642	0.250029995691	608
1848	686	0.250036715691	368
1848	711	0.250045835691	608
1848	810	0.375020451122	368
1848	846	0.375029571122	608
1848	890	0.375036291122	368
1848	915	0.375045411122	608
1848	1020	0.500020225972	368
1848	1056	0.500029345972	608
1848	1094	0.500036065972	368
1848	1119	0.500045185972	608
1848	1218	0.62501961126	368
1848	1254	0.62502873126	608
1848	1298	0.62503545126	368
1848	1323	0.62504457126	608
1848	1422	0.750018940515	368
1848	1458	0.750028060515	608
1848	1502	0.750034780515	368
1848	1527	0.750043900515	608
1848	1611	0.875018677062	368
1848	1647	0.875027797062	608
1848	1694	0.875034517062	368
1848	1723	0.875043637062	608
1849	402	0.1	17280
1849	606	0.2	19520
1849	810	0.3	19520
1849	1020	0.4	19520
1849	1020	0.5	0
1849	1218	0.6	19520
1849	1422	0.7	19520
1849	1611	0.8	19520
1851	1768	0.1	0
1851	1768	0.2	0
1851	1768	0.3	0
1851	1768	0.4	0
1851	1768	0.5	0
1851	1768	0.6	0
1851	1768	0.7	0
1851	1768	0.8	0
1851	1768	0.9	0
1851	1768	1	0
1858	181	0.000120896739	576
1858	238	0.000128256739	576
1858	282	0.000135616739	576
1858	302	0.000142976739	576
1858	402	0.125020875626	512
1858	438	0.125029995626	752
1858	482	0.125036715626	512
1858	507	0.125045835626	752
1858	606	0.250020875691	512
1858	642	0.250029995691	752
1858	686	0.250036715691	512
1858	711	0.250045835691	752
1858	810	0.375020451122	512
1858	846	0.375029571122	752
1858	890	0.375036291122	512
1858	915	0.375045411122	752
1858	1020	0.500020225972	512
1858	1056	0.500029345972	752
1858	1094	0.500036065972	512
1858	1119	0.500045185972	752
1858	1218	0.62501961126	512
1858	1254	0.62502873126	752
1858	1298	0.62503545126	512
1858	1323	0.62504457126	752
1858	1422	0.750018940515	512
1858	1458	0.750028060515	752
1858	1502	0.750034780515	512
1858	1527	0.750043900515	752
1858	1611	0.875018677062	512
1858	1647	0.875027797062	752
1858	1694	0.875034517062	512
1858	1723	0.875043637062	752
1859	402	0.1	23040
1859	606	0.2	25280
1859	810	0.3	25280
1859	1020	0.4	25280
1859	1020	0.5	0
1859	1218	0.6	25280
1859	1422	0.7	25280
1859	1611	0.8	25280
1860	181	0.000120896739	544
1860	238	0.000128256739	544
1860	282	0.000135616739	544
1860	302	0.000142976739	544
1860	402	0.125020875626	480
1860	438	0.125029995626	720
1860	482	0.125036715626	480
1860	507	0.125045835626	720
1860	606	0.250020875691	480
1860	642	0.250029995691	720
1860	686	0.250036715691	480
1860	711	0.250045835691	720
1860	810	0.375020451122	480
1860	846	0.375029571122	720
1860	890	0.375036291122	480
1860	915	0.375045411122	720
1860	1020	0.500020225972	480
1860	1056	0.500029345972	720
1860	1094	0.500036065972	480
1860	1119	0.500045185972	720
1860	1218	0.62501961126	480
1860	1254	0.62502873126	720
1860	1298	0.62503545126	480
1860	1323	0.62504457126	720
1860	1422	0.750018940515	480
1860	1458	0.750028060515	720
1860	1502	0.750034780515	480
1860	1527	0.750043900515	720
1860	1611	0.875018677062	480
1860	1647	0.875027797062	720
1860	1694	0.875034517062	480
1860	1723	0.875043637062	720
1861	402	0.1	21760
1861	606	0.2	24000
1861	810	0.3	24000
1861	1020	0.4	24000
1861	1020	0.5	0
1861	1218	0.6	24000
1861	1422	0.7	24000
1861	1611	0.8	24000
1863	1768	0.1	0
1863	1768	0.2	0
1863	1768	0.3	0
1863	1768	0.4	0
1863	1768	0.5	0
1863	1768	0.6	0
1863	1768	0.7	0
1863	1768	0.8	0
1863	1768	0.9	0
1863	1768	1	0
1874	0	0	0
1874	0	0	0
1874	0	0	0
1874	0	0	0
1874	0	0	0
1874	28	0.000099997083	1
1874	29	0.000099997083	0
1874	52	0.000100002312	1
1874	90	0.000107357083	0
1875	0	0	0
1875	0	0	0
1875	0	0	0
1875	0	0	0
1875	0	0	0
1875	28	0.000099997083	576
1875	29	0.000099997083	0
1875	52	0.000100002312	576
1875	90	0.000107357083	0
1876	29	0.000099997083	0
1876	90	0.000107357083	7.354771e-06
1877	28	0.000099997083	576
1877	52	0.000100002312	576
1878	1768	0.1	11520
1878	1768	0.2	0
1878	1768	0.3	0
1878	1768	0.4	0
1878	1768	0.5	0
1878	1768	0.6	0
1878	1768	0.7	0
1878	1768	0.8	0
1878	1768	0.9	0
1878	1768	1	0
1879	29	0.000099997083	576
1879	90	0.000107357083	576
1880	1768	0.1	11520
1880	1768	0.2	0
1880	1768	0.3	0
1880	1768	0.4	0
1880	1768	0.5	0
1880	1768	0.6	0
1880	1768	0.7	0
1880	1768	0.8	0
1880	1768	0.9	0
1880	1768	1	0
1885	29	0.000099997083	576
1885	90	0.000107357083	576
1886	1768	0.1	11520
1886	1768	0.2	0
1886	1768	0.3	0
1886	1768	0.4	0
1886	1768	0.5	0
1886	1768	0.6	0
1886	1768	0.7	0
1886	1768	0.8	0
1886	1768	0.9	0
1886	1768	1	0
1887	29	0.000099997083	576
1887	90	0.000107357083	576
1888	1768	0.1	11520
1888	1768	0.2	0
1888	1768	0.3	0
1888	1768	0.4	0
1888	1768	0.5	0
1888	1768	0.6	0
1888	1768	0.7	0
1888	1768	0.8	0
1888	1768	0.9	0
1888	1768	1	0
1889	29	0.000099997083	576
1889	90	0.000107357083	576
1891	29	0.000099997083	576
1891	90	0.000107357083	576
1897	181	0.000120896739	576
1897	238	0.000128256739	576
1897	282	0.000135616739	576
1897	302	0.000142976739	576
1897	402	0.125020875626	512
1897	438	0.125029995626	752
1897	482	0.125036715626	512
1897	507	0.125045835626	752
1897	606	0.250020875691	512
1897	642	0.250029995691	752
1897	686	0.250036715691	512
1897	711	0.250045835691	752
1897	810	0.375020451122	512
1897	846	0.375029571122	752
1897	890	0.375036291122	512
1897	915	0.375045411122	752
1897	1020	0.500020225972	512
1897	1056	0.500029345972	752
1897	1094	0.500036065972	512
1897	1119	0.500045185972	752
1897	1218	0.62501961126	512
1897	1254	0.62502873126	752
1897	1298	0.62503545126	512
1897	1323	0.62504457126	752
1897	1422	0.750018940515	512
1897	1458	0.750028060515	752
1897	1502	0.750034780515	512
1897	1527	0.750043900515	752
1897	1611	0.875018677062	512
1897	1647	0.875027797062	752
1897	1694	0.875034517062	512
1897	1723	0.875043637062	752
1898	402	0.1	23040
1898	606	0.2	25280
1898	810	0.3	25280
1898	1020	0.4	25280
1898	1020	0.5	0
1898	1218	0.6	25280
1898	1422	0.7	25280
1898	1611	0.8	25280
1899	181	0.000120896739	576
1899	238	0.000128256739	576
1899	282	0.000135616739	576
1899	302	0.000142976739	576
1899	402	0.125020875626	512
1899	438	0.125029995626	752
1899	482	0.125036715626	512
1899	507	0.125045835626	752
1899	606	0.250020875691	512
1899	642	0.250029995691	752
1899	686	0.250036715691	512
1899	711	0.250045835691	752
1899	810	0.375020451122	512
1899	846	0.375029571122	752
1899	890	0.375036291122	512
1899	915	0.375045411122	752
1899	1020	0.500020225972	512
1899	1056	0.500029345972	752
1899	1094	0.500036065972	512
1899	1119	0.500045185972	752
1899	1218	0.62501961126	512
1899	1254	0.62502873126	752
1899	1298	0.62503545126	512
1899	1323	0.62504457126	752
1899	1422	0.750018940515	512
1899	1458	0.750028060515	752
1899	1502	0.750034780515	512
1899	1527	0.750043900515	752
1899	1611	0.875018677062	512
1899	1647	0.875027797062	752
1899	1694	0.875034517062	512
1899	1723	0.875043637062	752
1900	402	0.1	23040
1900	606	0.2	25280
1900	810	0.3	25280
1900	1020	0.4	25280
1900	1020	0.5	0
1900	1218	0.6	25280
1900	1422	0.7	25280
1900	1611	0.8	25280
1902	1768	0.1	0
1902	1768	0.2	0
1902	1768	0.3	0
1902	1768	0.4	0
1902	1768	0.5	0
1902	1768	0.6	0
1902	1768	0.7	0
1902	1768	0.8	0
1902	1768	0.9	0
1902	1768	1	0
1909	181	0.000120896739	576
1909	238	0.000128256739	576
1909	282	0.000135616739	576
1909	302	0.000142976739	576
1909	402	0.125020875626	512
1909	438	0.125029995626	752
1909	482	0.125036715626	512
1909	507	0.125045835626	752
1909	606	0.250020875691	512
1909	642	0.250029995691	752
1909	686	0.250036715691	512
1909	711	0.250045835691	752
1909	810	0.375020451122	512
1909	846	0.375029571122	752
1909	890	0.375036291122	512
1909	915	0.375045411122	752
1909	1020	0.500020225972	512
1909	1056	0.500029345972	752
1909	1094	0.500036065972	512
1909	1119	0.500045185972	752
1909	1218	0.62501961126	512
1909	1254	0.62502873126	752
1909	1298	0.62503545126	512
1909	1323	0.62504457126	752
1909	1422	0.750018940515	512
1909	1458	0.750028060515	752
1909	1502	0.750034780515	512
1909	1527	0.750043900515	752
1909	1611	0.875018677062	512
1909	1647	0.875027797062	752
1909	1694	0.875034517062	512
1909	1723	0.875043637062	752
1910	402	0.1	23040
1910	606	0.2	25280
1910	810	0.3	25280
1910	1020	0.4	25280
1910	1020	0.5	0
1910	1218	0.6	25280
1910	1422	0.7	25280
1910	1611	0.8	25280
1911	181	0.000120896739	576
1911	238	0.000128256739	576
1911	282	0.000135616739	576
1911	302	0.000142976739	576
1911	402	0.125020875626	512
1911	438	0.125029995626	752
1911	482	0.125036715626	512
1911	507	0.125045835626	752
1911	606	0.250020875691	512
1911	642	0.250029995691	752
1911	686	0.250036715691	512
1911	711	0.250045835691	752
1911	810	0.375020451122	512
1911	846	0.375029571122	752
1911	890	0.375036291122	512
1911	915	0.375045411122	752
1911	1020	0.500020225972	512
1911	1056	0.500029345972	752
1911	1094	0.500036065972	512
1911	1119	0.500045185972	752
1911	1218	0.62501961126	512
1911	1254	0.62502873126	752
1911	1298	0.62503545126	512
1911	1323	0.62504457126	752
1911	1422	0.750018940515	512
1911	1458	0.750028060515	752
1911	1502	0.750034780515	512
1911	1527	0.750043900515	752
1911	1611	0.875018677062	512
1911	1647	0.875027797062	752
1911	1694	0.875034517062	512
1911	1723	0.875043637062	752
1912	402	0.1	23040
1912	606	0.2	25280
1912	810	0.3	25280
1912	1020	0.4	25280
1912	1020	0.5	0
1912	1218	0.6	25280
1912	1422	0.7	25280
1912	1611	0.8	25280
1917	29	0.000099997083	576
1917	90	0.000107357083	576
1919	29	0.000099997083	640
1919	90	0.000107357083	640
1925	0	0	0
1925	0	0	0
1925	58	0.000106397083	1
1925	89	0.000107357083	0
1925	101	0.000113757083	1
1925	142	0.000114717083	0
1926	29	0.000099997083	640
1926	90	0.000107357083	640
1928	29	0.000099997083	640
1928	90	0.000107357083	640
1934	0	0	0
1934	0	0	0
1934	29	0.000099997083	1
1934	58	0.000106397083	0
1934	90	0.000107357083	1
1934	101	0.000113757083	0
1935	1768	0.1	12800
1935	1768	0.2	0
1935	1768	0.3	0
1935	1768	0.4	0
1935	1768	0.5	0
1935	1768	0.6	0
1935	1768	0.7	0
1935	1768	0.8	0
1935	1768	0.9	0
1935	1768	1	0
1937	58	0.000106397083	6.4e-06
1937	101	0.000113757083	6.4e-06
1939	181	0.000120896739	640
1939	238	0.000128256739	640
1939	282	0.000135616739	640
1939	302	0.000142976739	640
1939	402	0.125020875626	576
1939	438	0.125029995626	816
1939	482	0.125036715626	576
1939	507	0.125045835626	816
1939	606	0.250020875691	576
1939	642	0.250029995691	816
1939	686	0.250036715691	576
1939	711	0.250045835691	816
1939	810	0.375020451122	576
1939	846	0.375029571122	816
1939	890	0.375036291122	576
1939	915	0.375045411122	816
1939	1020	0.500020225972	576
1939	1056	0.500029345972	816
1939	1094	0.500036065972	576
1939	1119	0.500045185972	816
1939	1218	0.62501961126	576
1939	1254	0.62502873126	816
1939	1298	0.62503545126	576
1939	1323	0.62504457126	816
1939	1422	0.750018940515	576
1939	1458	0.750028060515	816
1939	1502	0.750034780515	576
1939	1527	0.750043900515	816
1939	1611	0.875018677062	576
1939	1647	0.875027797062	816
1939	1694	0.875034517062	576
1939	1723	0.875043637062	816
1940	402	0.1	25600
1940	606	0.2	27840
1940	810	0.3	27840
1940	1020	0.4	27840
1940	1020	0.5	0
1940	1218	0.6	27840
1940	1422	0.7	27840
1940	1611	0.8	27840
1941	181	0.000120896739	576
1941	238	0.000128256739	576
1941	282	0.000135616739	576
1941	302	0.000142976739	576
1941	402	0.125020875626	512
1941	438	0.125029995626	752
1941	482	0.125036715626	512
1941	507	0.125045835626	752
1941	606	0.250020875691	512
1941	642	0.250029995691	752
1941	686	0.250036715691	512
1941	711	0.250045835691	752
1941	810	0.375020451122	512
1941	846	0.375029571122	752
1941	890	0.375036291122	512
1941	915	0.375045411122	752
1941	1020	0.500020225972	512
1941	1056	0.500029345972	752
1941	1094	0.500036065972	512
1941	1119	0.500045185972	752
1941	1218	0.62501961126	512
1941	1254	0.62502873126	752
1941	1298	0.62503545126	512
1941	1323	0.62504457126	752
1941	1422	0.750018940515	512
1941	1458	0.750028060515	752
1941	1502	0.750034780515	512
1941	1527	0.750043900515	752
1941	1611	0.875018677062	512
1941	1647	0.875027797062	752
1941	1694	0.875034517062	512
1941	1723	0.875043637062	752
1942	402	0.1	23040
1942	606	0.2	25280
1942	810	0.3	25280
1942	1020	0.4	25280
1942	1020	0.5	0
1942	1218	0.6	25280
1942	1422	0.7	25280
1942	1611	0.8	25280
1944	1768	0.1	0
1944	1768	0.2	0
1944	1768	0.3	0
1944	1768	0.4	0
1944	1768	0.5	0
1944	1768	0.6	0
1944	1768	0.7	0
1944	1768	0.8	0
1944	1768	0.9	0
1944	1768	1	0
1951	181	0.000120896739	640
1951	238	0.000128256739	640
1951	282	0.000135616739	640
1951	302	0.000142976739	640
1951	402	0.125020875626	576
1951	438	0.125029995626	816
1951	482	0.125036715626	576
1951	507	0.125045835626	816
1951	606	0.250020875691	576
1951	642	0.250029995691	816
1951	686	0.250036715691	576
1951	711	0.250045835691	816
1951	810	0.375020451122	576
1951	846	0.375029571122	816
1951	890	0.375036291122	576
1951	915	0.375045411122	816
1951	1020	0.500020225972	576
1951	1056	0.500029345972	816
1951	1094	0.500036065972	576
1951	1119	0.500045185972	816
1951	1218	0.62501961126	576
1951	1254	0.62502873126	816
1951	1298	0.62503545126	576
1951	1323	0.62504457126	816
1951	1422	0.750018940515	576
1951	1458	0.750028060515	816
1951	1502	0.750034780515	576
1951	1527	0.750043900515	816
1951	1611	0.875018677062	576
1951	1647	0.875027797062	816
1951	1694	0.875034517062	576
1951	1723	0.875043637062	816
1952	402	0.1	25600
1952	606	0.2	27840
1952	810	0.3	27840
1952	1020	0.4	27840
1952	1020	0.5	0
1952	1218	0.6	27840
1952	1422	0.7	27840
1952	1611	0.8	27840
1953	181	0.000120896739	640
1953	238	0.000128256739	640
1953	282	0.000135616739	640
1953	302	0.000142976739	640
1953	402	0.125020875626	576
1953	438	0.125029995626	816
1953	482	0.125036715626	576
1953	507	0.125045835626	816
1953	606	0.250020875691	576
1953	642	0.250029995691	816
1953	686	0.250036715691	576
1953	711	0.250045835691	816
1953	810	0.375020451122	576
1953	846	0.375029571122	816
1953	890	0.375036291122	576
1953	915	0.375045411122	816
1953	1020	0.500020225972	576
1953	1056	0.500029345972	816
1953	1094	0.500036065972	576
1953	1119	0.500045185972	816
1953	1218	0.62501961126	576
1953	1254	0.62502873126	816
1953	1298	0.62503545126	576
1953	1323	0.62504457126	816
1953	1422	0.750018940515	576
1953	1458	0.750028060515	816
1953	1502	0.750034780515	576
1953	1527	0.750043900515	816
1953	1611	0.875018677062	576
1953	1647	0.875027797062	816
1953	1694	0.875034517062	576
1953	1723	0.875043637062	816
1954	402	0.1	25600
1954	606	0.2	27840
1954	810	0.3	27840
1954	1020	0.4	27840
1954	1020	0.5	0
1954	1218	0.6	27840
1954	1422	0.7	27840
1954	1611	0.8	27840
1959	402	0.1	25600
1959	606	0.2	27840
1959	810	0.3	27840
1959	1020	0.4	27840
1959	1020	0.5	0
1959	1218	0.6	27840
1959	1422	0.7	27840
1959	1611	0.8	27840
1959	1768	0.9	27840
1959	1768	1	0
1960	181	0.000120896739	6.4e-06
1960	238	0.000128256739	6.4e-06
1960	282	0.000135616739	6.4e-06
1960	302	0.000142976739	6.4e-06
1960	402	0.125020875626	5.76e-06
1960	438	0.125029995626	8.16e-06
1960	482	0.125036715626	5.76e-06
1960	507	0.125045835626	8.16e-06
1960	606	0.250020875691	5.76e-06
1960	642	0.250029995691	8.16e-06
1960	686	0.250036715691	5.76e-06
1960	711	0.250045835691	8.16e-06
1960	810	0.375020451122	5.76e-06
1960	846	0.375029571122	8.16e-06
1960	890	0.375036291122	5.76e-06
1960	915	0.375045411122	8.16e-06
1960	1020	0.500020225972	5.76e-06
1960	1056	0.500029345972	8.16e-06
1960	1094	0.500036065972	5.76e-06
1960	1119	0.500045185972	8.16e-06
1960	1218	0.62501961126	5.76e-06
1960	1254	0.62502873126	8.16e-06
1960	1298	0.62503545126	5.76e-06
1960	1323	0.62504457126	8.16e-06
1960	1422	0.750018940515	5.76e-06
1960	1458	0.750028060515	8.16e-06
1960	1502	0.750034780515	5.76e-06
1960	1527	0.750043900515	8.16e-06
1960	1611	0.875018677062	5.76e-06
1960	1647	0.875027797062	8.16e-06
1960	1694	0.875034517062	5.76e-06
1960	1723	0.875043637062	8.16e-06
1972	0	0	0
1973	0	0	0
1974	0	0	0
1975	509	0.125045835626	0.125046019934
1975	713	0.250045835691	0.250046335995
1975	917	0.375045411122	0.375046378529
1975	1123	0.500045185972	0.500046693157
1975	1325	0.62504457126	0.625046498043
1975	1529	0.750043900515	0.750045894169
1975	1725	0.875043637062	0.875045507423
1976	509	0.125045835626	3.64869e-06
1976	509	0.125045835626	1.84308e-07
1976	713	0.250045835691	3.831661e-06
1976	713	0.250045835691	5.00304e-07
1976	917	0.375045411122	8.16298e-07
1976	917	0.375045411122	9.67407e-07
1976	1123	0.500045185972	1.434754e-06
1976	1123	0.500045185972	1.507185e-06
1976	1325	0.62504457126	2.046951e-06
1976	1325	0.62504457126	1.926783e-06
1976	1529	0.750043900515	2.346376e-06
1976	1529	0.750043900515	1.993654e-06
1976	1725	0.875043637062	2.060534e-06
1976	1725	0.875043637062	1.870361e-06
1977	509	0.125045835626	1
1977	713	0.250045835691	0.99997334992163
1977	917	0.375045411122	1.0000012108171
1977	1123	0.500045185972	1.0000005793589
1977	1325	0.62504457126	0.99999903861542
1977	1529	0.750043900515	0.99999717829033
1977	1725	0.875043637062	0.99999847881361
1978	239	0.000128256739	4.9902e-08
1980	441	0.125029995626	0.125029860308
1980	645	0.250029995691	0.250030179367
1980	849	0.375029571122	0.375030495048
1980	1059	0.500029345972	0.500030537877
1980	1257	0.62502873126	0.625030852438
1980	1461	0.750028060515	0.750030657243
1980	1650	0.875027797062	0.875030053241
1981	441	0.125029995626	-2.89115e-06
1981	441	0.125029995626	-1.35318e-07
1981	645	0.250029995691	-3.025776e-06
1981	645	0.250029995691	1.83676e-07
1981	849	0.375029571122	5.02671e-07
1981	849	0.375029571122	9.23926e-07
1981	1059	0.500029345972	1.663943e-06
1981	1059	0.500029345972	1.191905e-06
1981	1257	0.62502873126	1.459852e-06
1981	1257	0.62502873126	2.121178e-06
1981	1461	0.750028060515	3.050485e-06
1981	1461	0.750028060515	2.596728e-06
1981	1650	0.875027797062	3.072232e-06
1981	1650	0.875027797062	2.256179e-06
1982	441	0.125029995626	1
1982	645	0.250029995691	1.0000256762177
1982	849	0.375029571122	1.0000033681708
1982	1059	0.500029345972	0.99999622346356
1982	1257	0.62502873126	1.0000052909027
1982	1461	0.750028060515	0.99999636956751
1982	1650	0.875027797062	0.99999347185107
1983	303	0.000142976739	4.8998e-08
1987	181	0.000120896739	432
1987	238	0.000128256739	432
1987	282	0.000135616739	432
1987	302	0.000142976739	432
1987	402	0.125020875626	368
1987	438	0.125029995626	608
1987	482	0.125036715626	368
1987	507	0.125045835626	608
1987	606	0.250020875691	368
1987	642	0.250029995691	608
1987	686	0.250036715691	368
1987	711	0.250045835691	608
1987	810	0.375020451122	368
1987	846	0.375029571122	608
1987	890	0.375036291122	368
1987	915	0.375045411122	608
1987	1020	0.500020225972	368
1987	1056	0.500029345972	608
1987	1094	0.500036065972	368
1987	1119	0.500045185972	608
1987	1218	0.62501961126	368
1987	1254	0.62502873126	608
1987	1298	0.62503545126	368
1987	1323	0.62504457126	608
1987	1422	0.750018940515	368
1987	1458	0.750028060515	608
1987	1502	0.750034780515	368
1987	1527	0.750043900515	608
1987	1611	0.875018677062	368
1987	1647	0.875027797062	608
1987	1694	0.875034517062	368
1987	1723	0.875043637062	608
1988	402	0.1	17280
1988	606	0.2	19520
1988	810	0.3	19520
1988	1020	0.4	19520
1988	1020	0.5	0
1988	1218	0.6	19520
1988	1422	0.7	19520
1988	1611	0.8	19520
1988	1768	0.9	19520
1988	1768	1	0

