file 1948123 1752589178                                         
version 3
run RingTwoFailover-0-20250715-11:19:21-12821
attr configname RingTwoFailover
attr datetime 20250715-11:19:21
attr datetimef 20250715-111921
attr experiment RingTwoFailover
attr inifile omnetpp.ini
attr iterationvars ""
attr iterationvarsd ""
attr iterationvarsf ""
attr measurement ""
attr network TwoMasterClocksRingGptpShowcase
attr processid 12821
attr repetition 0
attr replication #0
attr resultdir results
attr runnumber 0
attr seedset 0
config image-path ../../../../images
config extends TwoMasterClocksExploitingNetworkRedundancy
config description "Ring topology with both master fail‑over"
config network TwoMasterClocksRingGptpShowcase
config experiment-label RingTwoFailover
config *.scenarioManager.typename ScenarioManager
config *.scenarioManager.script "xmldoc(\"failover2.xml\")"
config network TwoMasterClocksRingGptpShowcase
config description "Ring topology with redundant time synchronization domains"
config experiment-label RingTwoFailover
config *.tsnClock2.clock.typename MultiClock
config *.tsnClock2.clock.numClocks 2
config *.tsnClock*.gptp.typename MultiDomainGptp
config *.tsnClock1.gptp.numDomains 2
config *.tsnClock1.gptp.domain[0..1].clockModule "\"tsnClock1.clock\""
config *.tsnClock1.gptp.domain[0].masterPorts "[\"eth0\"]"
config *.tsnClock1.gptp.domain[1].masterPorts "[\"eth0\"]"
config *.tsnClock2.gptp.numDomains 4
config *.tsnClock2.gptp.domain[2..3].clockModule "\"tsnClock2.clock\""
config *.tsnClock2.gptp.domain[0].gptpNodeType "\"SLAVE_NODE\""
config *.tsnClock2.gptp.domain[0].slavePort "\"eth0\""
config *.tsnClock2.gptp.domain[1].gptpNodeType "\"SLAVE_NODE\""
config *.tsnClock2.gptp.domain[1].slavePort "\"eth0\""
config *.tsnClock2.gptp.domain[2].gptpNodeType "\"MASTER_NODE\""
config *.tsnClock2.gptp.domain[2].masterPorts "[\"eth0\"]"
config *.tsnClock2.gptp.domain[3].gptpNodeType "\"MASTER_NODE\""
config *.tsnClock2.gptp.domain[3].masterPorts "[\"eth0\"]"
config *.tsnSwitch*.clock.typename MultiClock
config *.tsnSwitch*.clock.numClocks 4
config *.tsnSwitch*.gptp.typename MultiDomainGptp
config *.tsnSwitch*.gptp.numDomains 4
config *.tsnSwitch1.gptp.domain[0].masterPorts "[\"eth1\"]"
config *.tsnSwitch1.gptp.domain[0].slavePort "\"eth0\""
config *.tsnSwitch1.gptp.domain[1].masterPorts "[\"eth2\"]"
config *.tsnSwitch1.gptp.domain[1].slavePort "\"eth0\""
config *.tsnSwitch1.gptp.domain[2].masterPorts "[\"eth1\"]"
config *.tsnSwitch1.gptp.domain[2].slavePort "\"eth2\""
config *.tsnSwitch1.gptp.domain[3].masterPorts "[\"eth2\"]"
config *.tsnSwitch1.gptp.domain[3].slavePort "\"eth1\""
config *.tsnSwitch2.gptp.domain[0].masterPorts "[\"eth1\", \"eth2\"]"
config *.tsnSwitch2.gptp.domain[0].slavePort "\"eth0\""
config *.tsnSwitch2.gptp.domain[1].masterPorts "[\"eth2\"]"
config *.tsnSwitch2.gptp.domain[1].slavePort "\"eth1\""
config *.tsnSwitch2.gptp.domain[2].masterPorts "[\"eth1\", \"eth2\"]"
config *.tsnSwitch2.gptp.domain[2].slavePort "\"eth0\""
config *.tsnSwitch2.gptp.domain[3].masterPorts "[\"eth0\", \"eth2\"]"
config *.tsnSwitch2.gptp.domain[3].slavePort "\"eth1\""
config *.tsnSwitch3.gptp.domain[0].masterPorts "[\"eth1\", \"eth2\"]"
config *.tsnSwitch3.gptp.domain[0].slavePort "\"eth0\""
config *.tsnSwitch3.gptp.domain[1].masterPorts "[\"eth0\", \"eth2\"]"
config *.tsnSwitch3.gptp.domain[1].slavePort "\"eth1\""
config *.tsnSwitch3.gptp.domain[2].masterPorts "[\"eth2\"]"
config *.tsnSwitch3.gptp.domain[2].slavePort "\"eth0\""
config *.tsnSwitch3.gptp.domain[3].masterPorts "[\"eth0\", \"eth2\"]"
config *.tsnSwitch3.gptp.domain[3].slavePort "\"eth1\""
config *.tsnSwitch4.gptp.domain[0].masterPorts "[\"eth0\", \"eth2\"]"
config *.tsnSwitch4.gptp.domain[0].slavePort "\"eth1\""
config *.tsnSwitch4.gptp.domain[1].masterPorts "[\"eth0\", \"eth1\"]"
config *.tsnSwitch4.gptp.domain[1].slavePort "\"eth2\""
config *.tsnSwitch4.gptp.domain[2].masterPorts "[\"eth2\"]"
config *.tsnSwitch4.gptp.domain[2].slavePort "\"eth0\""
config *.tsnSwitch4.gptp.domain[3].masterPorts "[\"eth1\"]"
config *.tsnSwitch4.gptp.domain[3].slavePort "\"eth0\""
config *.tsnSwitch5.gptp.domain[0].masterPorts "[\"eth1\", \"eth2\"]"
config *.tsnSwitch5.gptp.domain[0].slavePort "\"eth0\""
config *.tsnSwitch5.gptp.domain[1].masterPorts "[\"eth0\", \"eth2\"]"
config *.tsnSwitch5.gptp.domain[1].slavePort "\"eth1\""
config *.tsnSwitch5.gptp.domain[2].masterPorts "[\"eth1\", \"eth2\"]"
config *.tsnSwitch5.gptp.domain[2].slavePort "\"eth0\""
config *.tsnSwitch5.gptp.domain[3].masterPorts "[\"eth2\"]"
config *.tsnSwitch5.gptp.domain[3].slavePort "\"eth1\""
config *.tsnSwitch6.gptp.domain[0].masterPorts "[\"eth2\"]"
config *.tsnSwitch6.gptp.domain[0].slavePort "\"eth0\""
config *.tsnSwitch6.gptp.domain[1].masterPorts "[\"eth0\", \"eth2\"]"
config *.tsnSwitch6.gptp.domain[1].slavePort "\"eth1\""
config *.tsnSwitch6.gptp.domain[2].masterPorts "[\"eth1\", \"eth2\"]"
config *.tsnSwitch6.gptp.domain[2].slavePort "\"eth0\""
config *.tsnSwitch6.gptp.domain[3].masterPorts "[\"eth0\", \"eth2\"]"
config *.tsnSwitch6.gptp.domain[3].slavePort "\"eth1\""
config *.tsnDevice*.clock.typename MultiClock
config *.tsnDevice*.clock.numClocks 4
config *.tsnDevice*.gptp.typename MultiDomainGptp
config *.tsnDevice*.gptp.numDomains 4
config *.tsnDevice1.gptp.clockModule "\"tsnDevice1.clock\""
config *.tsnDevice2.gptp.clockModule "\"tsnDevice2.clock\""
config *.tsnDevice3.gptp.clockModule "\"tsnDevice3.clock\""
config *.tsnDevice4.gptp.clockModule "\"tsnDevice4.clock\""
config *.tsnDevice*.gptp.domain[*].slavePort "\"eth0\""
config **.pdelayInitialOffset 0.1ms
config *.*.gptp.domain[0].syncInitialOffset "syncInterval * 1 / 4"
config *.*.gptp.domain[1].syncInitialOffset "syncInterval * 2 / 4"
config *.*.gptp.domain[2].syncInitialOffset "syncInterval * 3 / 4"
config *.*.gptp.domain[3].syncInitialOffset "syncInterval * 4 / 4"
config *.visualizer.typename IntegratedMultiCanvasVisualizer
config *.visualizer.numDataLinkVisualizers 4
config *.visualizer.dataLinkVisualizer[*].displayLinks true
config *.visualizer.dataLinkVisualizer[*].activityLevel "\"protocol\""
config *.visualizer.dataLinkVisualizer[0].packetFilter "expr(has(GptpSync) && GptpSync.domainNumber == 0)"
config *.visualizer.dataLinkVisualizer[1].packetFilter "expr(has(GptpSync) && GptpSync.domainNumber == 1)"
config *.visualizer.dataLinkVisualizer[2].packetFilter "expr(has(GptpSync) && GptpSync.domainNumber == 2)"
config *.visualizer.dataLinkVisualizer[3].packetFilter "expr(has(GptpSync) && GptpSync.domainNumber == 3)"
config *.visualizer.dataLinkVisualizer[0].tags "\"primary GM domain0\""
config *.visualizer.dataLinkVisualizer[1].tags "\"primary GM domain1\""
config *.visualizer.dataLinkVisualizer[2].tags "\"hot-standby GM domain0\""
config *.visualizer.dataLinkVisualizer[3].tags "\"hot-standby GM domain1\""
config *.visualizer.dataLinkVisualizer[0].lineColor "\"blue4\""
config *.visualizer.dataLinkVisualizer[1].lineColor "\"blue1\""
config *.visualizer.dataLinkVisualizer[2].lineColor "\"red4\""
config *.visualizer.dataLinkVisualizer[3].lineColor "\"red1\""
config *.tsnClock1.clock.referenceClock "\"tsnClock1.clock\""
config *.tsnClock2.clock.clock[*].referenceClock "\"tsnClock1.clock\""
config *.tsnSwitch*.clock.clock[0..1].referenceClock "\"tsnClock1.clock\""
config *.tsnDevice*.clock.clock[0..1].referenceClock "\"tsnClock1.clock\""
config *.tsnSwitch*.clock.clock[2..3].referenceClock "\"tsnClock2.clock.clock[1]\""
config *.tsnDevice*.clock.clock[2..3].referenceClock "\"tsnClock2.clock.clock[1]\""
config *.tsnSwitch*.clock.clock[*].displayStringTextFormat "\"%d\""
config *.tsnDevice*.clock.clock[*].displayStringTextFormat "\"%d\""
config *.tsnClock1.clock.displayStringTextFormat "\"time: %T\""
config *.tsnClock2.clock.clock*.displayStringTextFormat "\"time: %T\\ndiff: %d\""
config *.visualizer.numInfoVisualizers 11
config *.visualizer.infoVisualizer[0].modules "\"*.tsnClock1.clock\""
config *.visualizer.infoVisualizer[0].textColor "\"blue4\""
config *.visualizer.infoVisualizer[1].modules "\"*.tsnSwitch1.*.clock[0] or *.tsnSwitch2.*.clock[0] or *.tsnSwitch6.*.clock[0] or *.tsnDevice1.*.clock[0] or *.tsnDevice4.*.clock[0]\""
config *.visualizer.infoVisualizer[1].textColor "\"blue4\""
config *.visualizer.infoVisualizer[2].modules "\"*.tsnSwitch1.*.clock[1] or *.tsnSwitch2.*.clock[1] or *.tsnSwitch6.*.clock[1] or *.tsnDevice1.*.clock[1] or *.tsnDevice4.*.clock[1]\""
config *.visualizer.infoVisualizer[2].textColor "\"blue1\""
config *.visualizer.infoVisualizer[3].modules "\"*.tsnSwitch1.*.clock[2] or *.tsnSwitch2.*.clock[2] or *.tsnSwitch6.*.clock[2] or *.tsnDevice1.*.clock[2] or *.tsnDevice4.*.clock[2]\""
config *.visualizer.infoVisualizer[3].textColor "\"red4\""
config *.visualizer.infoVisualizer[4].modules "\"*.tsnSwitch1.*.clock[3] or *.tsnSwitch2.*.clock[3] or *.tsnSwitch6.*.clock[3] or *.tsnDevice1.*.clock[3] or *.tsnDevice4.*.clock[3]\""
config *.visualizer.infoVisualizer[4].textColor "\"red1\""
config *.visualizer.infoVisualizer[5].modules "\"*.tsnDevice2.*.clock[0] or *.tsnDevice3.*.clock[0] or *.tsnSwitch3.*.clock[0] or *.tsnSwitch4.*.clock[0] or *.tsnSwitch5.*.clock[0]\""
config *.visualizer.infoVisualizer[5].textColor "\"blue4\""
config *.visualizer.infoVisualizer[6].modules "\"*.tsnDevice2.*.clock[1] or *.tsnDevice3.*.clock[1] or *.tsnSwitch3.*.clock[1] or *.tsnSwitch4.*.clock[1] or *.tsnSwitch5.*.clock[1]\""
config *.visualizer.infoVisualizer[6].textColor "\"blue1\""
config *.visualizer.infoVisualizer[7].modules "\"*.tsnDevice2.*.clock[2] or *.tsnDevice3.*.clock[2] or *.tsnSwitch3.*.clock[2] or *.tsnSwitch4.*.clock[2] or *.tsnSwitch5.*.clock[2]\""
config *.visualizer.infoVisualizer[7].textColor "\"red4\""
config *.visualizer.infoVisualizer[8].modules "\"*.tsnDevice2.*.clock[3] or *.tsnDevice3.*.clock[3] or *.tsnSwitch3.*.clock[3] or *.tsnSwitch4.*.clock[3] or *.tsnSwitch5.*.clock[3]\""
config *.visualizer.infoVisualizer[8].textColor "\"red1\""
config *.visualizer.infoVisualizer[9].modules "\"*.tsnClock2.*.clock[0]\""
config *.visualizer.infoVisualizer[9].textColor "\"red4\""
config *.visualizer.infoVisualizer[10].modules "\"*.tsnClock2.*.clock[1]\""
config *.visualizer.infoVisualizer[10].textColor "\"red1\""
config *.visualizer.infoVisualizer[5..10].placementHint "\"bottom\""
config experiment-label RingTwoFailover
config sim-time-limit 3s
config description abstract
config *.*.hasTimeSynchronization true
config **.tsnClock*.clock.oscillator.typename RandomDriftOscillator
config **.oscillator.changeInterval 12.5ms
config **.oscillator.driftRate "uniform(-100ppm, 100ppm)"
config **.oscillator.driftRateChange "uniform(-1ppm, 1ppm)"
config **.oscillator.driftRateChangeUpperLimit 100ppm
config **.oscillator.driftRateChangeLowerLimit -100ppm
config *.*.eth[*].bitrate 100Mbps
config *.visualizer.typename IntegratedMultiCanvasVisualizer
config *.visualizer.infoVisualizer[*].displayInfos true

vector 0 TwoMasterClocksRingGptpShowcase.tsnClock1.clock.oscillator driftRateChanged:vector ETV
attr interpolationmode sample-hold
attr recordingmode vector
attr title "Oscillator drift rate"
attr unit ppm
vector 1 TwoMasterClocksRingGptpShowcase.tsnClock1.clock timeChanged:vector ETV
attr interpolationmode linear
attr recordingmode vector
attr title "Clock time"
vector 2 TwoMasterClocksRingGptpShowcase.tsnClock1.ethernet.macHeaderInserter incomingPacketLengths:vector ETV
attr interpolationmode none
attr recordingmode vector
attr source "packetLength(merge(packetPushedIn, packetPulledIn))"
attr title "incoming packet lengths"
attr unit b
vector 3 TwoMasterClocksRingGptpShowcase.tsnClock1.ethernet.macHeaderInserter incomingDataRate:vector ETV
attr interpolationmode linear
attr recordingmode vector
attr source "throughput(merge(packetPushedIn, packetPulledIn))"
attr title "incoming data rate"
attr unit bps
vector 4 TwoMasterClocksRingGptpShowcase.tsnClock1.ethernet.macHeaderInserter outgoingPacketLengths:vector ETV
attr interpolationmode none
attr recordingmode vector
attr source "packetLength(merge(packetPushedOut, packetPulledOut))"
attr title "outgoing packet lengths"
attr unit b
vector 5 TwoMasterClocksRingGptpShowcase.tsnClock1.ethernet.macHeaderInserter outgoingDataRate:vector ETV
attr interpolationmode linear
attr recordingmode vector
attr source "throughput(merge(packetPushedOut, packetPulledOut))"
attr title "outgoing data rate"
attr unit bps
vector 6 TwoMasterClocksRingGptpShowcase.tsnClock1.ethernet.macHeaderInserter flowIncomingPacketLengths:vector ETV
attr interpolationmode none
attr recordingmode vector
attr source "packetLength(demuxFlow(merge(packetPushedIn, packetPulledIn)))"
attr title "flow specific incoming packet lengths"
attr unit b
vector 7 TwoMasterClocksRingGptpShowcase.tsnClock1.ethernet.macHeaderInserter flowIncomingDataRate:vector ETV
attr interpolationmode linear
attr recordingmode vector
attr source "throughput(demuxFlow(merge(packetPushedIn, packetPulledIn)))"
attr title "flow specific incoming data rate"
attr unit bps
vector 8 TwoMasterClocksRingGptpShowcase.tsnClock1.ethernet.macHeaderInserter flowOutgoingPacketLengths:vector ETV
attr interpolationmode none
attr recordingmode vector
attr source "packetLength(demuxFlow(merge(packetPushedOut, packetPulledOut)))"
attr title "flow specific outgoing packet lengths"
attr unit b
vector 9 TwoMasterClocksRingGptpShowcase.tsnClock1.ethernet.macHeaderInserter flowOutgoingDataRate:vector ETV
attr interpolationmode linear
attr recordingmode vector
attr source "throughput(demuxFlow(merge(packetPushedOut, packetPulledOut)))"
attr title "flow specific outgoing data rate"
attr unit bps
vector 10 TwoMasterClocksRingGptpShowcase.tsnClock1.ethernet.paddingInserter incomingPacketLengths:vector ETV
attr interpolationmode none
attr recordingmode vector
attr source "packetLength(merge(packetPushedIn, packetPulledIn))"
attr title "incoming packet lengths"
attr unit b
vector 11 TwoMasterClocksRingGptpShowcase.tsnClock1.ethernet.paddingInserter incomingDataRate:vector ETV
attr interpolationmode linear
attr recordingmode vector
attr source "throughput(merge(packetPushedIn, packetPulledIn))"
attr title "incoming data rate"
attr unit bps
vector 12 TwoMasterClocksRingGptpShowcase.tsnClock1.ethernet.paddingInserter outgoingPacketLengths:vector ETV
attr interpolationmode none
attr recordingmode vector
attr source "packetLength(merge(packetPushedOut, packetPulledOut))"
attr title "outgoing packet lengths"
attr unit b
vector 13 TwoMasterClocksRingGptpShowcase.tsnClock1.ethernet.paddingInserter outgoingDataRate:vector ETV
attr interpolationmode linear
attr recordingmode vector
attr source "throughput(merge(packetPushedOut, packetPulledOut))"
attr title "outgoing data rate"
attr unit bps
vector 14 TwoMasterClocksRingGptpShowcase.tsnClock1.ethernet.paddingInserter flowIncomingPacketLengths:vector ETV
attr interpolationmode none
attr recordingmode vector
attr source "packetLength(demuxFlow(merge(packetPushedIn, packetPulledIn)))"
attr title "flow specific incoming packet lengths"
attr unit b
vector 15 TwoMasterClocksRingGptpShowcase.tsnClock1.ethernet.paddingInserter flowIncomingDataRate:vector ETV
attr interpolationmode linear
attr recordingmode vector
attr source "throughput(demuxFlow(merge(packetPushedIn, packetPulledIn)))"
attr title "flow specific incoming data rate"
attr unit bps
vector 16 TwoMasterClocksRingGptpShowcase.tsnClock1.ethernet.paddingInserter flowOutgoingPacketLengths:vector ETV
attr interpolationmode none
attr recordingmode vector
attr source "packetLength(demuxFlow(merge(packetPushedOut, packetPulledOut)))"
attr title "flow specific outgoing packet lengths"
attr unit b
vector 17 TwoMasterClocksRingGptpShowcase.tsnClock1.ethernet.paddingInserter flowOutgoingDataRate:vector ETV
attr interpolationmode linear
attr recordingmode vector
attr source "throughput(demuxFlow(merge(packetPushedOut, packetPulledOut)))"
attr title "flow specific outgoing data rate"
attr unit bps
vector 18 TwoMasterClocksRingGptpShowcase.tsnClock1.ethernet.fcsInserter incomingPacketLengths:vector ETV
attr interpolationmode none
attr recordingmode vector
attr source "packetLength(merge(packetPushedIn, packetPulledIn))"
attr title "incoming packet lengths"
attr unit b
vector 19 TwoMasterClocksRingGptpShowcase.tsnClock1.ethernet.fcsInserter incomingDataRate:vector ETV
attr interpolationmode linear
attr recordingmode vector
attr source "throughput(merge(packetPushedIn, packetPulledIn))"
attr title "incoming data rate"
attr unit bps
vector 20 TwoMasterClocksRingGptpShowcase.tsnClock1.ethernet.fcsInserter outgoingPacketLengths:vector ETV
attr interpolationmode none
attr recordingmode vector
attr source "packetLength(merge(packetPushedOut, packetPulledOut))"
attr title "outgoing packet lengths"
attr unit b
vector 21 TwoMasterClocksRingGptpShowcase.tsnClock1.ethernet.fcsInserter outgoingDataRate:vector ETV
attr interpolationmode linear
attr recordingmode vector
attr source "throughput(merge(packetPushedOut, packetPulledOut))"
attr title "outgoing data rate"
attr unit bps
vector 22 TwoMasterClocksRingGptpShowcase.tsnClock1.ethernet.fcsInserter flowIncomingPacketLengths:vector ETV
attr interpolationmode none
attr recordingmode vector
attr source "packetLength(demuxFlow(merge(packetPushedIn, packetPulledIn)))"
attr title "flow specific incoming packet lengths"
attr unit b
vector 23 TwoMasterClocksRingGptpShowcase.tsnClock1.ethernet.fcsInserter flowIncomingDataRate:vector ETV
attr interpolationmode linear
attr recordingmode vector
attr source "throughput(demuxFlow(merge(packetPushedIn, packetPulledIn)))"
attr title "flow specific incoming data rate"
attr unit bps
vector 24 TwoMasterClocksRingGptpShowcase.tsnClock1.ethernet.fcsInserter flowOutgoingPacketLengths:vector ETV
attr interpolationmode none
attr recordingmode vector
attr source "packetLength(demuxFlow(merge(packetPushedOut, packetPulledOut)))"
attr title "flow specific outgoing packet lengths"
attr unit b
vector 25 TwoMasterClocksRingGptpShowcase.tsnClock1.ethernet.fcsInserter flowOutgoingDataRate:vector ETV
attr interpolationmode linear
attr recordingmode vector
attr source "throughput(demuxFlow(merge(packetPushedOut, packetPulledOut)))"
attr title "flow specific outgoing data rate"
attr unit bps
vector 26 TwoMasterClocksRingGptpShowcase.tsnClock1.ethernet.macHeaderChecker incomingPacketLengths:vector ETV
attr interpolationmode none
attr recordingmode vector
attr source "packetLength(merge(packetPushedIn, packetPulledIn))"
attr title "incoming packet lengths"
attr unit b
vector 27 TwoMasterClocksRingGptpShowcase.tsnClock1.ethernet.macHeaderChecker incomingDataRate:vector ETV
attr interpolationmode linear
attr recordingmode vector
attr source "throughput(merge(packetPushedIn, packetPulledIn))"
attr title "incoming data rate"
attr unit bps
vector 28 TwoMasterClocksRingGptpShowcase.tsnClock1.ethernet.macHeaderChecker outgoingPacketLengths:vector ETV
attr interpolationmode none
attr recordingmode vector
attr source "packetLength(merge(packetPushedOut, packetPulledOut))"
attr title "outgoing packet lengths"
attr unit b
vector 29 TwoMasterClocksRingGptpShowcase.tsnClock1.ethernet.macHeaderChecker outgoingDataRate:vector ETV
attr interpolationmode linear
attr recordingmode vector
attr source "throughput(merge(packetPushedOut, packetPulledOut))"
attr title "outgoing data rate"
attr unit bps
vector 30 TwoMasterClocksRingGptpShowcase.tsnClock1.ethernet.macHeaderChecker droppedPacketLengths:vector ETV
attr interpolationmode none
attr recordingmode vector
attr source packetLength(packetDropped)
attr title "dropped packet lengths"
attr unit b
vector 31 TwoMasterClocksRingGptpShowcase.tsnClock1.ethernet.macHeaderChecker droppedDataRate:vector ETV
attr interpolationmode linear
attr recordingmode vector
attr source throughput(packetDropped)
attr title "dropped data rate"
attr unit bps
vector 32 TwoMasterClocksRingGptpShowcase.tsnClock1.ethernet.macHeaderChecker flowIncomingPacketLengths:vector ETV
attr interpolationmode none
attr recordingmode vector
attr source "packetLength(demuxFlow(merge(packetPushedIn, packetPulledIn)))"
attr title "flow specific incoming packet lengths"
attr unit b
vector 33 TwoMasterClocksRingGptpShowcase.tsnClock1.ethernet.macHeaderChecker flowIncomingDataRate:vector ETV
attr interpolationmode linear
attr recordingmode vector
attr source "throughput(demuxFlow(merge(packetPushedIn, packetPulledIn)))"
attr title "flow specific incoming data rate"
attr unit bps
vector 34 TwoMasterClocksRingGptpShowcase.tsnClock1.ethernet.macHeaderChecker flowOutgoingPacketLengths:vector ETV
attr interpolationmode none
attr recordingmode vector
attr source "packetLength(demuxFlow(merge(packetPushedOut, packetPulledOut)))"
attr title "flow specific outgoing packet lengths"
attr unit b
vector 35 TwoMasterClocksRingGptpShowcase.tsnClock1.ethernet.macHeaderChecker flowOutgoingDataRate:vector ETV
attr interpolationmode linear
attr recordingmode vector
attr source "throughput(demuxFlow(merge(packetPushedOut, packetPulledOut)))"
attr title "flow specific outgoing data rate"
attr unit bps
vector 36 TwoMasterClocksRingGptpShowcase.tsnClock1.ethernet.macHeaderChecker flowDroppedPacketLengths:vector ETV
attr interpolationmode none
attr recordingmode vector
attr source packetLength(demuxFlow(packetDropped))
attr title "flow specific dropped packet lengths"
attr unit b
vector 37 TwoMasterClocksRingGptpShowcase.tsnClock1.ethernet.macHeaderChecker flowDroppedDataRate:vector ETV
attr interpolationmode linear
attr recordingmode vector
attr source throughput(demuxFlow(packetDropped))
attr title "flow specific dropped data rate"
attr unit bps
vector 38 TwoMasterClocksRingGptpShowcase.tsnClock1.ethernet.fcsChecker incomingPacketLengths:vector ETV
attr interpolationmode none
attr recordingmode vector
attr source "packetLength(merge(packetPushedIn, packetPulledIn))"
attr title "incoming packet lengths"
attr unit b
vector 39 TwoMasterClocksRingGptpShowcase.tsnClock1.ethernet.fcsChecker incomingDataRate:vector ETV
attr interpolationmode linear
attr recordingmode vector
attr source "throughput(merge(packetPushedIn, packetPulledIn))"
attr title "incoming data rate"
attr unit bps
vector 40 TwoMasterClocksRingGptpShowcase.tsnClock1.ethernet.fcsChecker outgoingPacketLengths:vector ETV
attr interpolationmode none
attr recordingmode vector
attr source "packetLength(merge(packetPushedOut, packetPulledOut))"
attr title "outgoing packet lengths"
attr unit b
vector 41 TwoMasterClocksRingGptpShowcase.tsnClock1.ethernet.fcsChecker outgoingDataRate:vector ETV
attr interpolationmode linear
attr recordingmode vector
attr source "throughput(merge(packetPushedOut, packetPulledOut))"
attr title "outgoing data rate"
attr unit bps
vector 42 TwoMasterClocksRingGptpShowcase.tsnClock1.ethernet.fcsChecker droppedPacketLengths:vector ETV
attr interpolationmode none
attr recordingmode vector
attr source packetLength(packetDropped)
attr title "dropped packet lengths"
attr unit b
vector 43 TwoMasterClocksRingGptpShowcase.tsnClock1.ethernet.fcsChecker droppedDataRate:vector ETV
attr interpolationmode linear
attr recordingmode vector
attr source throughput(packetDropped)
attr title "dropped data rate"
attr unit bps
vector 44 TwoMasterClocksRingGptpShowcase.tsnClock1.ethernet.fcsChecker flowIncomingPacketLengths:vector ETV
attr interpolationmode none
attr recordingmode vector
attr source "packetLength(demuxFlow(merge(packetPushedIn, packetPulledIn)))"
attr title "flow specific incoming packet lengths"
attr unit b
vector 45 TwoMasterClocksRingGptpShowcase.tsnClock1.ethernet.fcsChecker flowIncomingDataRate:vector ETV
attr interpolationmode linear
attr recordingmode vector
attr source "throughput(demuxFlow(merge(packetPushedIn, packetPulledIn)))"
attr title "flow specific incoming data rate"
attr unit bps
vector 46 TwoMasterClocksRingGptpShowcase.tsnClock1.ethernet.fcsChecker flowOutgoingPacketLengths:vector ETV
attr interpolationmode none
attr recordingmode vector
attr source "packetLength(demuxFlow(merge(packetPushedOut, packetPulledOut)))"
attr title "flow specific outgoing packet lengths"
attr unit b
vector 47 TwoMasterClocksRingGptpShowcase.tsnClock1.ethernet.fcsChecker flowOutgoingDataRate:vector ETV
attr interpolationmode linear
attr recordingmode vector
attr source "throughput(demuxFlow(merge(packetPushedOut, packetPulledOut)))"
attr title "flow specific outgoing data rate"
attr unit bps
vector 48 TwoMasterClocksRingGptpShowcase.tsnClock1.ethernet.fcsChecker flowDroppedPacketLengths:vector ETV
attr interpolationmode none
attr recordingmode vector
attr source packetLength(demuxFlow(packetDropped))
attr title "flow specific dropped packet lengths"
attr unit b
vector 49 TwoMasterClocksRingGptpShowcase.tsnClock1.ethernet.fcsChecker flowDroppedDataRate:vector ETV
attr interpolationmode linear
attr recordingmode vector
attr source throughput(demuxFlow(packetDropped))
attr title "flow specific dropped data rate"
attr unit bps
vector 50 TwoMasterClocksRingGptpShowcase.tsnClock1.lo[0].lo rcvdPkFromHl:vector(packetBytes) ETV
attr interpolationmode none
attr recordingmode vector(packetBytes)
attr source packetReceivedFromUpper
attr title "packets received from higher layer, packetBytes"
vector 51 TwoMasterClocksRingGptpShowcase.tsnClock1.lo[0].lo passedUpPk:vector(packetBytes) ETV
attr interpolationmode none
attr recordingmode vector(packetBytes)
attr source packetSentToUpper
attr title "packets passed to higher layer, packetBytes"
vector 52 TwoMasterClocksRingGptpShowcase.tsnClock1.lo[0] packetDropInterfaceDown:vector(packetBytes) ETV
attr interpolationmode none
attr recordingmode vector(packetBytes)
attr source packetDropReasonIsInterfaceDown(packetDropped)
attr title "packet drops: interface down, packetBytes"
vector 53 TwoMasterClocksRingGptpShowcase.tsnClock1.lo[0] packetDropNoCarrier:vector(packetBytes) ETV
attr interpolationmode none
attr recordingmode vector(packetBytes)
attr source packetDropReasonIsNoCarrier(packetDropped)
attr title "packet drops: no carrier, packetBytes"
vector 54 TwoMasterClocksRingGptpShowcase.tsnClock1.eth[0].macLayer.queue queueLength:vector ETV
attr autoWarmupFilter false
attr interpolationmode sample-hold
attr recordingmode vector
attr source "warmup(atomic(constant0(packetPushEnded) + count(packetPushStarted) - count(packetPulled) - count(packetRemoved) - count(packetDropped)))"
attr title "queue length"
attr unit pk
vector 55 TwoMasterClocksRingGptpShowcase.tsnClock1.eth[0].macLayer.queue queueBitLength:vector ETV
attr autoWarmupFilter false
attr interpolationmode sample-hold
attr recordingmode vector
attr source "warmup(atomic(constant0(packetPushEnded) + sum(packetLength(packetPushStarted)) - sum(packetLength(packetPulled)) - sum(packetLength(packetRemoved)) - sum(packetLength(packetDropped))))"
attr title "queue bit length"
attr unit b
vector 56 TwoMasterClocksRingGptpShowcase.tsnClock1.eth[0].macLayer.queue queueingTime:vector ETV
attr interpolationmode none
attr recordingmode vector
attr source queueingTime(packetPulled)
attr title "queueing times"
attr unit s
vector 57 TwoMasterClocksRingGptpShowcase.tsnClock1.eth[0].macLayer.queue incomingPacketLengths:vector ETV
attr interpolationmode none
attr recordingmode vector
attr source packetLength(packetPushStarted)
attr title "incoming packet lengths"
attr unit b
vector 58 TwoMasterClocksRingGptpShowcase.tsnClock1.eth[0].macLayer.queue incomingDataRate:vector ETV
attr interpolationmode linear
attr recordingmode vector
attr source throughput(packetPushStarted)
attr title "incoming datarate"
attr unit bps
vector 59 TwoMasterClocksRingGptpShowcase.tsnClock1.eth[0].macLayer.queue outgoingPacketLengths:vector ETV
attr interpolationmode none
attr recordingmode vector
attr source packetLength(packetPulled)
attr title "outgoing packet lengths"
attr unit b
vector 60 TwoMasterClocksRingGptpShowcase.tsnClock1.eth[0].macLayer.queue outgoingDataRate:vector ETV
attr interpolationmode linear
attr recordingmode vector
attr source throughput(packetPulled)
attr title "outgoing datarate"
attr unit bps
vector 61 TwoMasterClocksRingGptpShowcase.tsnClock1.eth[0].macLayer.queue droppedPacketLengthsQueueOverflow:vector ETV
attr interpolationmode none
attr recordingmode vector
attr source packetLength(packetDropReasonIsQueueOverflow(packetDropped))
attr title "dropped packet lengths: queue overflow"
attr unit b
vector 62 TwoMasterClocksRingGptpShowcase.tsnClock1.eth[0].macLayer.queue flowQueueingTime:vector ETV
attr interpolationmode none
attr recordingmode vector
attr source queueingTime(demuxFlow(packetPulled))
attr title "flow queueing times"
attr unit s
vector 63 TwoMasterClocksRingGptpShowcase.tsnClock1.eth[0].macLayer.queue flowIncomingDataRate:vector ETV
attr interpolationmode linear
attr recordingmode vector
attr source throughput(flowPacketLength(demuxFlow(packetPushStarted)))
attr title "flow specific incoming data rate"
attr unit bps
vector 64 TwoMasterClocksRingGptpShowcase.tsnClock1.eth[0].macLayer.queue flowOutgoingDataRate:vector ETV
attr interpolationmode linear
attr recordingmode vector
attr source throughput(flowPacketLength(demuxFlow(packetPulled)))
attr title "flow specific outgoing data rate"
attr unit bps
vector 65 TwoMasterClocksRingGptpShowcase.tsnClock1.eth[0].macLayer.server incomingPacketLengths:vector ETV
attr interpolationmode none
attr recordingmode vector
attr source packetLength(packetPulled)
attr title "incoming packet lengths"
attr unit b
vector 66 TwoMasterClocksRingGptpShowcase.tsnClock1.eth[0].macLayer.server incomingDataRate:vector ETV
attr interpolationmode linear
attr recordingmode vector
attr source throughput(packetPulled)
attr title "incoming datarate"
attr unit bps
vector 67 TwoMasterClocksRingGptpShowcase.tsnClock1.eth[0].macLayer.server outgoingPacketLengths:vector ETV
attr interpolationmode none
attr recordingmode vector
attr source packetLength(packetPushed)
attr title "outgoing packet lengths"
attr unit b
vector 68 TwoMasterClocksRingGptpShowcase.tsnClock1.eth[0].macLayer.server outgoingDataRate:vector ETV
attr interpolationmode linear
attr recordingmode vector
attr source throughput(packetPushed)
attr title "outgoing datarate"
attr unit bps
vector 69 TwoMasterClocksRingGptpShowcase.tsnClock1.eth[0].macLayer.outboundEmitter incomingPacketLengths:vector ETV
attr interpolationmode none
attr recordingmode vector
attr source "packetLength(merge(packetPushedIn, packetPulledIn))"
attr title "incoming packet lengths"
attr unit b
vector 70 TwoMasterClocksRingGptpShowcase.tsnClock1.eth[0].macLayer.outboundEmitter incomingDataRate:vector ETV
attr interpolationmode linear
attr recordingmode vector
attr source "throughput(merge(packetPushedIn, packetPulledIn))"
attr title "incoming data rate"
attr unit bps
vector 71 TwoMasterClocksRingGptpShowcase.tsnClock1.eth[0].macLayer.outboundEmitter outgoingPacketLengths:vector ETV
attr interpolationmode none
attr recordingmode vector
attr source "packetLength(merge(packetPushedOut, packetPulledOut))"
attr title "outgoing packet lengths"
attr unit b
vector 72 TwoMasterClocksRingGptpShowcase.tsnClock1.eth[0].macLayer.outboundEmitter outgoingDataRate:vector ETV
attr interpolationmode linear
attr recordingmode vector
attr source "throughput(merge(packetPushedOut, packetPulledOut))"
attr title "outgoing data rate"
attr unit bps
vector 73 TwoMasterClocksRingGptpShowcase.tsnClock1.eth[0].macLayer.outboundEmitter flowIncomingPacketLengths:vector ETV
attr interpolationmode none
attr recordingmode vector
attr source "packetLength(demuxFlow(merge(packetPushedIn, packetPulledIn)))"
attr title "flow specific incoming packet lengths"
attr unit b
vector 74 TwoMasterClocksRingGptpShowcase.tsnClock1.eth[0].macLayer.outboundEmitter flowIncomingDataRate:vector ETV
attr interpolationmode linear
attr recordingmode vector
attr source "throughput(demuxFlow(merge(packetPushedIn, packetPulledIn)))"
attr title "flow specific incoming data rate"
attr unit bps
vector 75 TwoMasterClocksRingGptpShowcase.tsnClock1.eth[0].macLayer.outboundEmitter flowOutgoingPacketLengths:vector ETV
attr interpolationmode none
attr recordingmode vector
attr source "packetLength(demuxFlow(merge(packetPushedOut, packetPulledOut)))"
attr title "flow specific outgoing packet lengths"
attr unit b
vector 76 TwoMasterClocksRingGptpShowcase.tsnClock1.eth[0].macLayer.outboundEmitter flowOutgoingDataRate:vector ETV
attr interpolationmode linear
attr recordingmode vector
attr source "throughput(demuxFlow(merge(packetPushedOut, packetPulledOut)))"
attr title "flow specific outgoing data rate"
attr unit bps
vector 77 TwoMasterClocksRingGptpShowcase.tsnClock1.eth[0].macLayer.fcsChecker incomingPacketLengths:vector ETV
attr interpolationmode none
attr recordingmode vector
attr source "packetLength(merge(packetPushedIn, packetPulledIn))"
attr title "incoming packet lengths"
attr unit b
vector 78 TwoMasterClocksRingGptpShowcase.tsnClock1.eth[0].macLayer.fcsChecker incomingDataRate:vector ETV
attr interpolationmode linear
attr recordingmode vector
attr source "throughput(merge(packetPushedIn, packetPulledIn))"
attr title "incoming data rate"
attr unit bps
vector 79 TwoMasterClocksRingGptpShowcase.tsnClock1.eth[0].macLayer.fcsChecker outgoingPacketLengths:vector ETV
attr interpolationmode none
attr recordingmode vector
attr source "packetLength(merge(packetPushedOut, packetPulledOut))"
attr title "outgoing packet lengths"
attr unit b
vector 80 TwoMasterClocksRingGptpShowcase.tsnClock1.eth[0].macLayer.fcsChecker outgoingDataRate:vector ETV
attr interpolationmode linear
attr recordingmode vector
attr source "throughput(merge(packetPushedOut, packetPulledOut))"
attr title "outgoing data rate"
attr unit bps
vector 81 TwoMasterClocksRingGptpShowcase.tsnClock1.eth[0].macLayer.fcsChecker droppedPacketLengths:vector ETV
attr interpolationmode none
attr recordingmode vector
attr source packetLength(packetDropped)
attr title "dropped packet lengths"
attr unit b
vector 82 TwoMasterClocksRingGptpShowcase.tsnClock1.eth[0].macLayer.fcsChecker droppedDataRate:vector ETV
attr interpolationmode linear
attr recordingmode vector
attr source throughput(packetDropped)
attr title "dropped data rate"
attr unit bps
vector 83 TwoMasterClocksRingGptpShowcase.tsnClock1.eth[0].macLayer.fcsChecker flowIncomingPacketLengths:vector ETV
attr interpolationmode none
attr recordingmode vector
attr source "packetLength(demuxFlow(merge(packetPushedIn, packetPulledIn)))"
attr title "flow specific incoming packet lengths"
attr unit b
vector 84 TwoMasterClocksRingGptpShowcase.tsnClock1.eth[0].macLayer.fcsChecker flowIncomingDataRate:vector ETV
attr interpolationmode linear
attr recordingmode vector
attr source "throughput(demuxFlow(merge(packetPushedIn, packetPulledIn)))"
attr title "flow specific incoming data rate"
attr unit bps
vector 85 TwoMasterClocksRingGptpShowcase.tsnClock1.eth[0].macLayer.fcsChecker flowOutgoingPacketLengths:vector ETV
attr interpolationmode none
attr recordingmode vector
attr source "packetLength(demuxFlow(merge(packetPushedOut, packetPulledOut)))"
attr title "flow specific outgoing packet lengths"
attr unit b
vector 86 TwoMasterClocksRingGptpShowcase.tsnClock1.eth[0].macLayer.fcsChecker flowOutgoingDataRate:vector ETV
attr interpolationmode linear
attr recordingmode vector
attr source "throughput(demuxFlow(merge(packetPushedOut, packetPulledOut)))"
attr title "flow specific outgoing data rate"
attr unit bps
vector 87 TwoMasterClocksRingGptpShowcase.tsnClock1.eth[0].macLayer.fcsChecker flowDroppedPacketLengths:vector ETV
attr interpolationmode none
attr recordingmode vector
attr source packetLength(demuxFlow(packetDropped))
attr title "flow specific dropped packet lengths"
attr unit b
vector 88 TwoMasterClocksRingGptpShowcase.tsnClock1.eth[0].macLayer.fcsChecker flowDroppedDataRate:vector ETV
attr interpolationmode linear
attr recordingmode vector
attr source throughput(demuxFlow(packetDropped))
attr title "flow specific dropped data rate"
attr unit bps
vector 89 TwoMasterClocksRingGptpShowcase.tsnClock1.eth[0].macLayer.inboundEmitter incomingPacketLengths:vector ETV
attr interpolationmode none
attr recordingmode vector
attr source "packetLength(merge(packetPushedIn, packetPulledIn))"
attr title "incoming packet lengths"
attr unit b
vector 90 TwoMasterClocksRingGptpShowcase.tsnClock1.eth[0].macLayer.inboundEmitter incomingDataRate:vector ETV
attr interpolationmode linear
attr recordingmode vector
attr source "throughput(merge(packetPushedIn, packetPulledIn))"
attr title "incoming data rate"
attr unit bps
vector 91 TwoMasterClocksRingGptpShowcase.tsnClock1.eth[0].macLayer.inboundEmitter outgoingPacketLengths:vector ETV
attr interpolationmode none
attr recordingmode vector
attr source "packetLength(merge(packetPushedOut, packetPulledOut))"
attr title "outgoing packet lengths"
attr unit b
vector 92 TwoMasterClocksRingGptpShowcase.tsnClock1.eth[0].macLayer.inboundEmitter outgoingDataRate:vector ETV
attr interpolationmode linear
attr recordingmode vector
attr source "throughput(merge(packetPushedOut, packetPulledOut))"
attr title "outgoing data rate"
attr unit bps
vector 93 TwoMasterClocksRingGptpShowcase.tsnClock1.eth[0].macLayer.inboundEmitter flowIncomingPacketLengths:vector ETV
attr interpolationmode none
attr recordingmode vector
attr source "packetLength(demuxFlow(merge(packetPushedIn, packetPulledIn)))"
attr title "flow specific incoming packet lengths"
attr unit b
vector 94 TwoMasterClocksRingGptpShowcase.tsnClock1.eth[0].macLayer.inboundEmitter flowIncomingDataRate:vector ETV
attr interpolationmode linear
attr recordingmode vector
attr source "throughput(demuxFlow(merge(packetPushedIn, packetPulledIn)))"
attr title "flow specific incoming data rate"
attr unit bps
vector 95 TwoMasterClocksRingGptpShowcase.tsnClock1.eth[0].macLayer.inboundEmitter flowOutgoingPacketLengths:vector ETV
attr interpolationmode none
attr recordingmode vector
attr source "packetLength(demuxFlow(merge(packetPushedOut, packetPulledOut)))"
attr title "flow specific outgoing packet lengths"
attr unit b
vector 96 TwoMasterClocksRingGptpShowcase.tsnClock1.eth[0].macLayer.inboundEmitter flowOutgoingDataRate:vector ETV
attr interpolationmode linear
attr recordingmode vector
attr source "throughput(demuxFlow(merge(packetPushedOut, packetPulledOut)))"
attr title "flow specific outgoing data rate"
attr unit bps
vector 97 TwoMasterClocksRingGptpShowcase.tsnClock1.eth[0].phyLayer.phyHeaderInserter incomingPacketLengths:vector ETV
attr interpolationmode none
attr recordingmode vector
attr source "packetLength(merge(packetPushedIn, packetPulledIn))"
attr title "incoming packet lengths"
attr unit b
vector 98 TwoMasterClocksRingGptpShowcase.tsnClock1.eth[0].phyLayer.phyHeaderInserter incomingDataRate:vector ETV
attr interpolationmode linear
attr recordingmode vector
attr source "throughput(merge(packetPushedIn, packetPulledIn))"
attr title "incoming data rate"
attr unit bps
vector 99 TwoMasterClocksRingGptpShowcase.tsnClock1.eth[0].phyLayer.phyHeaderInserter outgoingPacketLengths:vector ETV
attr interpolationmode none
attr recordingmode vector
attr source "packetLength(merge(packetPushedOut, packetPulledOut))"
attr title "outgoing packet lengths"
attr unit b
vector 100 TwoMasterClocksRingGptpShowcase.tsnClock1.eth[0].phyLayer.phyHeaderInserter outgoingDataRate:vector ETV
attr interpolationmode linear
attr recordingmode vector
attr source "throughput(merge(packetPushedOut, packetPulledOut))"
attr title "outgoing data rate"
attr unit bps
vector 101 TwoMasterClocksRingGptpShowcase.tsnClock1.eth[0].phyLayer.phyHeaderInserter flowIncomingPacketLengths:vector ETV
attr interpolationmode none
attr recordingmode vector
attr source "packetLength(demuxFlow(merge(packetPushedIn, packetPulledIn)))"
attr title "flow specific incoming packet lengths"
attr unit b
vector 102 TwoMasterClocksRingGptpShowcase.tsnClock1.eth[0].phyLayer.phyHeaderInserter flowIncomingDataRate:vector ETV
attr interpolationmode linear
attr recordingmode vector
attr source "throughput(demuxFlow(merge(packetPushedIn, packetPulledIn)))"
attr title "flow specific incoming data rate"
attr unit bps
vector 103 TwoMasterClocksRingGptpShowcase.tsnClock1.eth[0].phyLayer.phyHeaderInserter flowOutgoingPacketLengths:vector ETV
attr interpolationmode none
attr recordingmode vector
attr source "packetLength(demuxFlow(merge(packetPushedOut, packetPulledOut)))"
attr title "flow specific outgoing packet lengths"
attr unit b
vector 104 TwoMasterClocksRingGptpShowcase.tsnClock1.eth[0].phyLayer.phyHeaderInserter flowOutgoingDataRate:vector ETV
attr interpolationmode linear
attr recordingmode vector
attr source "throughput(demuxFlow(merge(packetPushedOut, packetPulledOut)))"
attr title "flow specific outgoing data rate"
attr unit bps
vector 105 TwoMasterClocksRingGptpShowcase.tsnClock1.eth[0].phyLayer.interFrameGapInserter interpacketGap:vector ETV
attr interpolationmode sample-hold
attr recordingmode vector
attr source "count(interpacketGapStarted) - count(interpacketGapEnded)"
attr title "interpacket gap state"
attr type int
vector 106 TwoMasterClocksRingGptpShowcase.tsnClock1.eth[0].phyLayer.outboundEmitter incomingPacketLengths:vector ETV
attr interpolationmode none
attr recordingmode vector
attr source "packetLength(merge(packetPushedIn, packetPulledIn))"
attr title "incoming packet lengths"
attr unit b
vector 107 TwoMasterClocksRingGptpShowcase.tsnClock1.eth[0].phyLayer.outboundEmitter incomingDataRate:vector ETV
attr interpolationmode linear
attr recordingmode vector
attr source "throughput(merge(packetPushedIn, packetPulledIn))"
attr title "incoming data rate"
attr unit bps
vector 108 TwoMasterClocksRingGptpShowcase.tsnClock1.eth[0].phyLayer.outboundEmitter outgoingPacketLengths:vector ETV
attr interpolationmode none
attr recordingmode vector
attr source "packetLength(merge(packetPushedOut, packetPulledOut))"
attr title "outgoing packet lengths"
attr unit b
vector 109 TwoMasterClocksRingGptpShowcase.tsnClock1.eth[0].phyLayer.outboundEmitter outgoingDataRate:vector ETV
attr interpolationmode linear
attr recordingmode vector
attr source "throughput(merge(packetPushedOut, packetPulledOut))"
attr title "outgoing data rate"
attr unit bps
vector 110 TwoMasterClocksRingGptpShowcase.tsnClock1.eth[0].phyLayer.outboundEmitter flowIncomingPacketLengths:vector ETV
attr interpolationmode none
attr recordingmode vector
attr source "packetLength(demuxFlow(merge(packetPushedIn, packetPulledIn)))"
attr title "flow specific incoming packet lengths"
attr unit b
vector 111 TwoMasterClocksRingGptpShowcase.tsnClock1.eth[0].phyLayer.outboundEmitter flowIncomingDataRate:vector ETV
attr interpolationmode linear
attr recordingmode vector
attr source "throughput(demuxFlow(merge(packetPushedIn, packetPulledIn)))"
attr title "flow specific incoming data rate"
attr unit bps
vector 112 TwoMasterClocksRingGptpShowcase.tsnClock1.eth[0].phyLayer.outboundEmitter flowOutgoingPacketLengths:vector ETV
attr interpolationmode none
attr recordingmode vector
attr source "packetLength(demuxFlow(merge(packetPushedOut, packetPulledOut)))"
attr title "flow specific outgoing packet lengths"
attr unit b
vector 113 TwoMasterClocksRingGptpShowcase.tsnClock1.eth[0].phyLayer.outboundEmitter flowOutgoingDataRate:vector ETV
attr interpolationmode linear
attr recordingmode vector
attr source "throughput(demuxFlow(merge(packetPushedOut, packetPulledOut)))"
attr title "flow specific outgoing data rate"
attr unit bps
vector 114 TwoMasterClocksRingGptpShowcase.tsnClock1.eth[0].phyLayer.transmitter transmitting:vector ETV
attr interpolationmode sample-hold
attr recordingmode vector
attr source "count(transmissionStarted) - count(transmissionEnded)"
attr title "transmitting state"
attr type int
vector 115 TwoMasterClocksRingGptpShowcase.tsnClock1.eth[0].phyLayer.transmitter throughput:vector ETV
attr interpolationmode linear
attr recordingmode vector
attr source throughput(transmissionEnded)
attr title throughput
attr unit bps
vector 116 TwoMasterClocksRingGptpShowcase.tsnClock1.eth[0].phyLayer.transmitter utilization:vector ETV
attr interpolationmode linear
attr recordingmode vector
attr source "100 * utilization(count(transmissionStarted) - count(transmissionEnded))"
attr title utilization
attr unit %
vector 117 TwoMasterClocksRingGptpShowcase.tsnClock1.eth[0].phyLayer.transmitter transmissionTime:vector ETV
attr interpolationmode none
attr recordingmode vector
attr source packetDuration(transmissionEnded)
attr title "transmission time"
attr unit s
vector 118 TwoMasterClocksRingGptpShowcase.tsnClock1.eth[0].phyLayer.transmitter flowTransmissionTime:vector ETV
attr interpolationmode none
attr recordingmode vector
attr source packetDuration(demuxFlow(transmissionEnded))
attr title "flow transmission time"
attr unit s
vector 119 TwoMasterClocksRingGptpShowcase.tsnClock1.eth[0].phyLayer.phyHeaderChecker incomingPacketLengths:vector ETV
attr interpolationmode none
attr recordingmode vector
attr source "packetLength(merge(packetPushedIn, packetPulledIn))"
attr title "incoming packet lengths"
attr unit b
vector 120 TwoMasterClocksRingGptpShowcase.tsnClock1.eth[0].phyLayer.phyHeaderChecker incomingDataRate:vector ETV
attr interpolationmode linear
attr recordingmode vector
attr source "throughput(merge(packetPushedIn, packetPulledIn))"
attr title "incoming data rate"
attr unit bps
vector 121 TwoMasterClocksRingGptpShowcase.tsnClock1.eth[0].phyLayer.phyHeaderChecker outgoingPacketLengths:vector ETV
attr interpolationmode none
attr recordingmode vector
attr source "packetLength(merge(packetPushedOut, packetPulledOut))"
attr title "outgoing packet lengths"
attr unit b
vector 122 TwoMasterClocksRingGptpShowcase.tsnClock1.eth[0].phyLayer.phyHeaderChecker outgoingDataRate:vector ETV
attr interpolationmode linear
attr recordingmode vector
attr source "throughput(merge(packetPushedOut, packetPulledOut))"
attr title "outgoing data rate"
attr unit bps
vector 123 TwoMasterClocksRingGptpShowcase.tsnClock1.eth[0].phyLayer.phyHeaderChecker droppedPacketLengths:vector ETV
attr interpolationmode none
attr recordingmode vector
attr source packetLength(packetDropped)
attr title "dropped packet lengths"
attr unit b
vector 124 TwoMasterClocksRingGptpShowcase.tsnClock1.eth[0].phyLayer.phyHeaderChecker droppedDataRate:vector ETV
attr interpolationmode linear
attr recordingmode vector
attr source throughput(packetDropped)
attr title "dropped data rate"
attr unit bps
vector 125 TwoMasterClocksRingGptpShowcase.tsnClock1.eth[0].phyLayer.phyHeaderChecker flowIncomingPacketLengths:vector ETV
attr interpolationmode none
attr recordingmode vector
attr source "packetLength(demuxFlow(merge(packetPushedIn, packetPulledIn)))"
attr title "flow specific incoming packet lengths"
attr unit b
vector 126 TwoMasterClocksRingGptpShowcase.tsnClock1.eth[0].phyLayer.phyHeaderChecker flowIncomingDataRate:vector ETV
attr interpolationmode linear
attr recordingmode vector
attr source "throughput(demuxFlow(merge(packetPushedIn, packetPulledIn)))"
attr title "flow specific incoming data rate"
attr unit bps
vector 127 TwoMasterClocksRingGptpShowcase.tsnClock1.eth[0].phyLayer.phyHeaderChecker flowOutgoingPacketLengths:vector ETV
attr interpolationmode none
attr recordingmode vector
attr source "packetLength(demuxFlow(merge(packetPushedOut, packetPulledOut)))"
attr title "flow specific outgoing packet lengths"
attr unit b
vector 128 TwoMasterClocksRingGptpShowcase.tsnClock1.eth[0].phyLayer.phyHeaderChecker flowOutgoingDataRate:vector ETV
attr interpolationmode linear
attr recordingmode vector
attr source "throughput(demuxFlow(merge(packetPushedOut, packetPulledOut)))"
attr title "flow specific outgoing data rate"
attr unit bps
vector 129 TwoMasterClocksRingGptpShowcase.tsnClock1.eth[0].phyLayer.phyHeaderChecker flowDroppedPacketLengths:vector ETV
attr interpolationmode none
attr recordingmode vector
attr source packetLength(demuxFlow(packetDropped))
attr title "flow specific dropped packet lengths"
attr unit b
vector 130 TwoMasterClocksRingGptpShowcase.tsnClock1.eth[0].phyLayer.phyHeaderChecker flowDroppedDataRate:vector ETV
attr interpolationmode linear
attr recordingmode vector
attr source throughput(demuxFlow(packetDropped))
attr title "flow specific dropped data rate"
attr unit bps
vector 131 TwoMasterClocksRingGptpShowcase.tsnClock1.eth[0].phyLayer.inboundEmitter incomingPacketLengths:vector ETV
attr interpolationmode none
attr recordingmode vector
attr source "packetLength(merge(packetPushedIn, packetPulledIn))"
attr title "incoming packet lengths"
attr unit b
vector 132 TwoMasterClocksRingGptpShowcase.tsnClock1.eth[0].phyLayer.inboundEmitter incomingDataRate:vector ETV
attr interpolationmode linear
attr recordingmode vector
attr source "throughput(merge(packetPushedIn, packetPulledIn))"
attr title "incoming data rate"
attr unit bps
vector 133 TwoMasterClocksRingGptpShowcase.tsnClock1.eth[0].phyLayer.inboundEmitter outgoingPacketLengths:vector ETV
attr interpolationmode none
attr recordingmode vector
attr source "packetLength(merge(packetPushedOut, packetPulledOut))"
attr title "outgoing packet lengths"
attr unit b
vector 134 TwoMasterClocksRingGptpShowcase.tsnClock1.eth[0].phyLayer.inboundEmitter outgoingDataRate:vector ETV
attr interpolationmode linear
attr recordingmode vector
attr source "throughput(merge(packetPushedOut, packetPulledOut))"
attr title "outgoing data rate"
attr unit bps
vector 135 TwoMasterClocksRingGptpShowcase.tsnClock1.eth[0].phyLayer.inboundEmitter flowIncomingPacketLengths:vector ETV
attr interpolationmode none
attr recordingmode vector
attr source "packetLength(demuxFlow(merge(packetPushedIn, packetPulledIn)))"
attr title "flow specific incoming packet lengths"
attr unit b
vector 136 TwoMasterClocksRingGptpShowcase.tsnClock1.eth[0].phyLayer.inboundEmitter flowIncomingDataRate:vector ETV
attr interpolationmode linear
attr recordingmode vector
attr source "throughput(demuxFlow(merge(packetPushedIn, packetPulledIn)))"
attr title "flow specific incoming data rate"
attr unit bps
vector 137 TwoMasterClocksRingGptpShowcase.tsnClock1.eth[0].phyLayer.inboundEmitter flowOutgoingPacketLengths:vector ETV
attr interpolationmode none
attr recordingmode vector
attr source "packetLength(demuxFlow(merge(packetPushedOut, packetPulledOut)))"
attr title "flow specific outgoing packet lengths"
attr unit b
vector 138 TwoMasterClocksRingGptpShowcase.tsnClock1.eth[0].phyLayer.inboundEmitter flowOutgoingDataRate:vector ETV
attr interpolationmode linear
attr recordingmode vector
attr source "throughput(demuxFlow(merge(packetPushedOut, packetPulledOut)))"
attr title "flow specific outgoing data rate"
attr unit bps
vector 139 TwoMasterClocksRingGptpShowcase.tsnClock1.eth[0].phyLayer.receiver throughput:vector ETV
attr interpolationmode linear
attr recordingmode vector
attr source throughput(receptionEnded)
attr title throughput
attr unit bps
vector 140 TwoMasterClocksRingGptpShowcase.tsnClock1.eth[0].phyLayer.receiver receptionTime:vector ETV
attr interpolationmode none
attr recordingmode vector
attr source packetDuration(receptionEnded)
attr title "reception time"
attr unit s
vector 141 TwoMasterClocksRingGptpShowcase.tsnClock1.eth[0].phyLayer.receiver flowReceptionTime:vector ETV
attr interpolationmode none
attr recordingmode vector
attr source packetDuration(demuxFlow(receptionEnded))
attr title "flow reception time"
attr unit s
vector 142 TwoMasterClocksRingGptpShowcase.tsnClock1.eth[0] packetDropInterfaceDown:vector(packetBytes) ETV
attr interpolationmode none
attr recordingmode vector(packetBytes)
attr source packetDropReasonIsInterfaceDown(packetDropped)
attr title "packet drops: interface down, packetBytes"
vector 143 TwoMasterClocksRingGptpShowcase.tsnClock1.eth[0] packetDropNoCarrier:vector(packetBytes) ETV
attr interpolationmode none
attr recordingmode vector(packetBytes)
attr source packetDropReasonIsNoCarrier(packetDropped)
attr title "packet drops: no carrier, packetBytes"
vector 144 TwoMasterClocksRingGptpShowcase.tsnClock1.ipv4.ip packetDropAddressResolutionFailed:vector(packetBytes) ETV
attr interpolationmode none
attr recordingmode vector(packetBytes)
attr source packetDropReasonIsAddressResolutionFailed(packetDropped)
attr title "packet drop: address resolution failed, packetBytes"
vector 145 TwoMasterClocksRingGptpShowcase.tsnClock1.ipv4.ip packetDropHopLimitReached:vector(packetBytes) ETV
attr interpolationmode none
attr recordingmode vector(packetBytes)
attr source packetDropReasonIsHopLimitReached(packetDropped)
attr title "packet drop: hop limit reached, packetBytes"
vector 146 TwoMasterClocksRingGptpShowcase.tsnClock1.ipv4.ip packetDropForwardingDisabled:vector(packetBytes) ETV
attr interpolationmode none
attr recordingmode vector(packetBytes)
attr source packetDropReasonIsForwardingDisabled(packetDropped)
attr title "packet drop: forwarding disabled, packetBytes"
vector 147 TwoMasterClocksRingGptpShowcase.tsnClock1.ipv4.ip packetDropNoInterfaceFound:vector(packetBytes) ETV
attr interpolationmode none
attr recordingmode vector(packetBytes)
attr source packetDropReasonIsNoInterfaceFound(packetDropped)
attr title "packet drop: no interface found, packetBytes"
vector 148 TwoMasterClocksRingGptpShowcase.tsnClock1.ipv4.ip packetDropNoRouteFound:vector(packetBytes) ETV
attr interpolationmode none
attr recordingmode vector(packetBytes)
attr source packetDropReasonIsNoRouteFound(packetDropped)
attr title "packet drop: no route found, packetBytes"
vector 149 TwoMasterClocksRingGptpShowcase.tsnClock1.ipv4.ip packetDropUndefined:vector(packetBytes) ETV
attr interpolationmode none
attr recordingmode vector(packetBytes)
attr source packetDropReasonIsUndefined(packetDropped)
attr title "packet drop: undefined, packetBytes"
vector 150 TwoMasterClocksRingGptpShowcase.tsnClock1.udp packetSent:vector(packetBytes) ETV
attr interpolationmode none
attr recordingmode vector(packetBytes)
attr source packetSent
attr title "packets sent, packetBytes"
vector 151 TwoMasterClocksRingGptpShowcase.tsnClock1.udp packetReceived:vector(packetBytes) ETV
attr interpolationmode none
attr recordingmode vector(packetBytes)
attr source packetReceived
attr title "packets received, packetBytes"
vector 152 TwoMasterClocksRingGptpShowcase.tsnClock1.udp passedUpPk:vector(count) ETV
attr interpolationmode none
attr recordingmode vector(count)
attr source packetSentToUpper
attr title "packets passed up, count"
vector 153 TwoMasterClocksRingGptpShowcase.tsnClock1.udp droppedPkWrongPort:vector(count) ETV
attr interpolationmode none
attr recordingmode vector(count)
attr source packetDropReasonIsNoPortFound(packetDropped)
attr title "packets dropped (wrong port), count"
vector 154 TwoMasterClocksRingGptpShowcase.tsnClock1.udp droppedPkBadChecksum:vector(count) ETV
attr interpolationmode none
attr recordingmode vector(count)
attr source packetDropReasonIsIncorrectlyReceived(packetDropped)
attr title "packets dropped (checksum error), count"
vector 155 TwoMasterClocksRingGptpShowcase.tsnClock1.gptp.domain[0] localTime:vector ETV
attr interpolationmode linear
attr recordingmode vector
vector 156 TwoMasterClocksRingGptpShowcase.tsnClock1.gptp.domain[0] timeDifference:vector ETV
attr interpolationmode linear
attr recordingmode vector
vector 157 TwoMasterClocksRingGptpShowcase.tsnClock1.gptp.domain[0] rateRatio:vector ETV
attr interpolationmode sample-hold
attr recordingmode vector
vector 158 TwoMasterClocksRingGptpShowcase.tsnClock1.gptp.domain[0] peerDelay:vector ETV
attr interpolationmode sample-hold
attr recordingmode vector
vector 159 TwoMasterClocksRingGptpShowcase.tsnClock1.gptp.domain[0] packetDropNotAddressedToUs:vector(packetBytes) ETV
attr interpolationmode none
attr recordingmode vector(packetBytes)
attr source packetDropReasonIsNotAddressedToUs(packetDropped)
attr title "packet drop: not addressed to us, packetBytes"
vector 160 TwoMasterClocksRingGptpShowcase.tsnClock1.gptp.domain[1] localTime:vector ETV
attr interpolationmode linear
attr recordingmode vector
vector 161 TwoMasterClocksRingGptpShowcase.tsnClock1.gptp.domain[1] timeDifference:vector ETV
attr interpolationmode linear
attr recordingmode vector
vector 162 TwoMasterClocksRingGptpShowcase.tsnClock1.gptp.domain[1] rateRatio:vector ETV
attr interpolationmode sample-hold
attr recordingmode vector
vector 163 TwoMasterClocksRingGptpShowcase.tsnClock1.gptp.domain[1] peerDelay:vector ETV
attr interpolationmode sample-hold
attr recordingmode vector
vector 164 TwoMasterClocksRingGptpShowcase.tsnClock1.gptp.domain[1] packetDropNotAddressedToUs:vector(packetBytes) ETV
attr interpolationmode none
attr recordingmode vector(packetBytes)
attr source packetDropReasonIsNotAddressedToUs(packetDropped)
attr title "packet drop: not addressed to us, packetBytes"
vector 165 TwoMasterClocksRingGptpShowcase.tsnClock1.gptp.multiplexer packetLengths:vector ETV
attr interpolationmode none
attr recordingmode vector
attr source "packetLength(merge(packetPushed, packetPulled))"
attr title "packet lengths"
attr unit b
vector 166 TwoMasterClocksRingGptpShowcase.tsnClock1.gptp.multiplexer dataRate:vector ETV
attr interpolationmode linear
attr recordingmode vector
attr source "throughput(merge(packetPushed, packetPulled))"
attr title "data rate"
attr unit bps
vector 167 TwoMasterClocksRingGptpShowcase.tsnClock1.gptp.classifier packetLengths:vector ETV
attr interpolationmode none
attr recordingmode vector
attr source packetLength(packetPushed)
attr title "packet lengths"
attr unit b
vector 168 TwoMasterClocksRingGptpShowcase.tsnClock1.gptp.classifier dataRate:vector ETV
attr interpolationmode linear
attr recordingmode vector
attr source throughput(packetPushed)
attr title "data rate"
attr unit bps
vector 169 TwoMasterClocksRingGptpShowcase.tsnClock2.clock.clock[0].oscillator driftRateChanged:vector ETV
attr interpolationmode sample-hold
attr recordingmode vector
attr title "Oscillator drift rate"
attr unit ppm
vector 170 TwoMasterClocksRingGptpShowcase.tsnClock2.clock.clock[0] timeChanged:vector ETV
attr interpolationmode linear
attr recordingmode vector
attr title "Clock time"
vector 171 TwoMasterClocksRingGptpShowcase.tsnClock2.clock.clock[1].oscillator driftRateChanged:vector ETV
attr interpolationmode sample-hold
attr recordingmode vector
attr title "Oscillator drift rate"
attr unit ppm
vector 172 TwoMasterClocksRingGptpShowcase.tsnClock2.clock.clock[1] timeChanged:vector ETV
attr interpolationmode linear
attr recordingmode vector
attr title "Clock time"
vector 173 TwoMasterClocksRingGptpShowcase.tsnClock2.clock timeChanged:vector ETV
attr interpolationmode linear
attr recordingmode vector
attr source localSignal(timeChanged)
attr title "Clock time"
vector 174 TwoMasterClocksRingGptpShowcase.tsnClock2.ethernet.macHeaderInserter incomingPacketLengths:vector ETV
attr interpolationmode none
attr recordingmode vector
attr source "packetLength(merge(packetPushedIn, packetPulledIn))"
attr title "incoming packet lengths"
attr unit b
vector 175 TwoMasterClocksRingGptpShowcase.tsnClock2.ethernet.macHeaderInserter incomingDataRate:vector ETV
attr interpolationmode linear
attr recordingmode vector
attr source "throughput(merge(packetPushedIn, packetPulledIn))"
attr title "incoming data rate"
attr unit bps
vector 176 TwoMasterClocksRingGptpShowcase.tsnClock2.ethernet.macHeaderInserter outgoingPacketLengths:vector ETV
attr interpolationmode none
attr recordingmode vector
attr source "packetLength(merge(packetPushedOut, packetPulledOut))"
attr title "outgoing packet lengths"
attr unit b
vector 177 TwoMasterClocksRingGptpShowcase.tsnClock2.ethernet.macHeaderInserter outgoingDataRate:vector ETV
attr interpolationmode linear
attr recordingmode vector
attr source "throughput(merge(packetPushedOut, packetPulledOut))"
attr title "outgoing data rate"
attr unit bps
vector 178 TwoMasterClocksRingGptpShowcase.tsnClock2.ethernet.macHeaderInserter flowIncomingPacketLengths:vector ETV
attr interpolationmode none
attr recordingmode vector
attr source "packetLength(demuxFlow(merge(packetPushedIn, packetPulledIn)))"
attr title "flow specific incoming packet lengths"
attr unit b
vector 179 TwoMasterClocksRingGptpShowcase.tsnClock2.ethernet.macHeaderInserter flowIncomingDataRate:vector ETV
attr interpolationmode linear
attr recordingmode vector
attr source "throughput(demuxFlow(merge(packetPushedIn, packetPulledIn)))"
attr title "flow specific incoming data rate"
attr unit bps
vector 180 TwoMasterClocksRingGptpShowcase.tsnClock2.ethernet.macHeaderInserter flowOutgoingPacketLengths:vector ETV
attr interpolationmode none
attr recordingmode vector
attr source "packetLength(demuxFlow(merge(packetPushedOut, packetPulledOut)))"
attr title "flow specific outgoing packet lengths"
attr unit b
vector 181 TwoMasterClocksRingGptpShowcase.tsnClock2.ethernet.macHeaderInserter flowOutgoingDataRate:vector ETV
attr interpolationmode linear
attr recordingmode vector
attr source "throughput(demuxFlow(merge(packetPushedOut, packetPulledOut)))"
attr title "flow specific outgoing data rate"
attr unit bps
vector 182 TwoMasterClocksRingGptpShowcase.tsnClock2.ethernet.paddingInserter incomingPacketLengths:vector ETV
attr interpolationmode none
attr recordingmode vector
attr source "packetLength(merge(packetPushedIn, packetPulledIn))"
attr title "incoming packet lengths"
attr unit b
vector 183 TwoMasterClocksRingGptpShowcase.tsnClock2.ethernet.paddingInserter incomingDataRate:vector ETV
attr interpolationmode linear
attr recordingmode vector
attr source "throughput(merge(packetPushedIn, packetPulledIn))"
attr title "incoming data rate"
attr unit bps
vector 184 TwoMasterClocksRingGptpShowcase.tsnClock2.ethernet.paddingInserter outgoingPacketLengths:vector ETV
attr interpolationmode none
attr recordingmode vector
attr source "packetLength(merge(packetPushedOut, packetPulledOut))"
attr title "outgoing packet lengths"
attr unit b
vector 185 TwoMasterClocksRingGptpShowcase.tsnClock2.ethernet.paddingInserter outgoingDataRate:vector ETV
attr interpolationmode linear
attr recordingmode vector
attr source "throughput(merge(packetPushedOut, packetPulledOut))"
attr title "outgoing data rate"
attr unit bps
vector 186 TwoMasterClocksRingGptpShowcase.tsnClock2.ethernet.paddingInserter flowIncomingPacketLengths:vector ETV
attr interpolationmode none
attr recordingmode vector
attr source "packetLength(demuxFlow(merge(packetPushedIn, packetPulledIn)))"
attr title "flow specific incoming packet lengths"
attr unit b
vector 187 TwoMasterClocksRingGptpShowcase.tsnClock2.ethernet.paddingInserter flowIncomingDataRate:vector ETV
attr interpolationmode linear
attr recordingmode vector
attr source "throughput(demuxFlow(merge(packetPushedIn, packetPulledIn)))"
attr title "flow specific incoming data rate"
attr unit bps
vector 188 TwoMasterClocksRingGptpShowcase.tsnClock2.ethernet.paddingInserter flowOutgoingPacketLengths:vector ETV
attr interpolationmode none
attr recordingmode vector
attr source "packetLength(demuxFlow(merge(packetPushedOut, packetPulledOut)))"
attr title "flow specific outgoing packet lengths"
attr unit b
vector 189 TwoMasterClocksRingGptpShowcase.tsnClock2.ethernet.paddingInserter flowOutgoingDataRate:vector ETV
attr interpolationmode linear
attr recordingmode vector
attr source "throughput(demuxFlow(merge(packetPushedOut, packetPulledOut)))"
attr title "flow specific outgoing data rate"
attr unit bps
vector 190 TwoMasterClocksRingGptpShowcase.tsnClock2.ethernet.fcsInserter incomingPacketLengths:vector ETV
attr interpolationmode none
attr recordingmode vector
attr source "packetLength(merge(packetPushedIn, packetPulledIn))"
attr title "incoming packet lengths"
attr unit b
vector 191 TwoMasterClocksRingGptpShowcase.tsnClock2.ethernet.fcsInserter incomingDataRate:vector ETV
attr interpolationmode linear
attr recordingmode vector
attr source "throughput(merge(packetPushedIn, packetPulledIn))"
attr title "incoming data rate"
attr unit bps
vector 192 TwoMasterClocksRingGptpShowcase.tsnClock2.ethernet.fcsInserter outgoingPacketLengths:vector ETV
attr interpolationmode none
attr recordingmode vector
attr source "packetLength(merge(packetPushedOut, packetPulledOut))"
attr title "outgoing packet lengths"
attr unit b
vector 193 TwoMasterClocksRingGptpShowcase.tsnClock2.ethernet.fcsInserter outgoingDataRate:vector ETV
attr interpolationmode linear
attr recordingmode vector
attr source "throughput(merge(packetPushedOut, packetPulledOut))"
attr title "outgoing data rate"
attr unit bps
vector 194 TwoMasterClocksRingGptpShowcase.tsnClock2.ethernet.fcsInserter flowIncomingPacketLengths:vector ETV
attr interpolationmode none
attr recordingmode vector
attr source "packetLength(demuxFlow(merge(packetPushedIn, packetPulledIn)))"
attr title "flow specific incoming packet lengths"
attr unit b
vector 195 TwoMasterClocksRingGptpShowcase.tsnClock2.ethernet.fcsInserter flowIncomingDataRate:vector ETV
attr interpolationmode linear
attr recordingmode vector
attr source "throughput(demuxFlow(merge(packetPushedIn, packetPulledIn)))"
attr title "flow specific incoming data rate"
attr unit bps
vector 196 TwoMasterClocksRingGptpShowcase.tsnClock2.ethernet.fcsInserter flowOutgoingPacketLengths:vector ETV
attr interpolationmode none
attr recordingmode vector
attr source "packetLength(demuxFlow(merge(packetPushedOut, packetPulledOut)))"
attr title "flow specific outgoing packet lengths"
attr unit b
vector 197 TwoMasterClocksRingGptpShowcase.tsnClock2.ethernet.fcsInserter flowOutgoingDataRate:vector ETV
attr interpolationmode linear
attr recordingmode vector
attr source "throughput(demuxFlow(merge(packetPushedOut, packetPulledOut)))"
attr title "flow specific outgoing data rate"
attr unit bps
vector 198 TwoMasterClocksRingGptpShowcase.tsnClock2.ethernet.macHeaderChecker incomingPacketLengths:vector ETV
attr interpolationmode none
attr recordingmode vector
attr source "packetLength(merge(packetPushedIn, packetPulledIn))"
attr title "incoming packet lengths"
attr unit b
vector 199 TwoMasterClocksRingGptpShowcase.tsnClock2.ethernet.macHeaderChecker incomingDataRate:vector ETV
attr interpolationmode linear
attr recordingmode vector
attr source "throughput(merge(packetPushedIn, packetPulledIn))"
attr title "incoming data rate"
attr unit bps
vector 200 TwoMasterClocksRingGptpShowcase.tsnClock2.ethernet.macHeaderChecker outgoingPacketLengths:vector ETV
attr interpolationmode none
attr recordingmode vector
attr source "packetLength(merge(packetPushedOut, packetPulledOut))"
attr title "outgoing packet lengths"
attr unit b
vector 201 TwoMasterClocksRingGptpShowcase.tsnClock2.ethernet.macHeaderChecker outgoingDataRate:vector ETV
attr interpolationmode linear
attr recordingmode vector
attr source "throughput(merge(packetPushedOut, packetPulledOut))"
attr title "outgoing data rate"
attr unit bps
vector 202 TwoMasterClocksRingGptpShowcase.tsnClock2.ethernet.macHeaderChecker droppedPacketLengths:vector ETV
attr interpolationmode none
attr recordingmode vector
attr source packetLength(packetDropped)
attr title "dropped packet lengths"
attr unit b
vector 203 TwoMasterClocksRingGptpShowcase.tsnClock2.ethernet.macHeaderChecker droppedDataRate:vector ETV
attr interpolationmode linear
attr recordingmode vector
attr source throughput(packetDropped)
attr title "dropped data rate"
attr unit bps
vector 204 TwoMasterClocksRingGptpShowcase.tsnClock2.ethernet.macHeaderChecker flowIncomingPacketLengths:vector ETV
attr interpolationmode none
attr recordingmode vector
attr source "packetLength(demuxFlow(merge(packetPushedIn, packetPulledIn)))"
attr title "flow specific incoming packet lengths"
attr unit b
vector 205 TwoMasterClocksRingGptpShowcase.tsnClock2.ethernet.macHeaderChecker flowIncomingDataRate:vector ETV
attr interpolationmode linear
attr recordingmode vector
attr source "throughput(demuxFlow(merge(packetPushedIn, packetPulledIn)))"
attr title "flow specific incoming data rate"
attr unit bps
vector 206 TwoMasterClocksRingGptpShowcase.tsnClock2.ethernet.macHeaderChecker flowOutgoingPacketLengths:vector ETV
attr interpolationmode none
attr recordingmode vector
attr source "packetLength(demuxFlow(merge(packetPushedOut, packetPulledOut)))"
attr title "flow specific outgoing packet lengths"
attr unit b
vector 207 TwoMasterClocksRingGptpShowcase.tsnClock2.ethernet.macHeaderChecker flowOutgoingDataRate:vector ETV
attr interpolationmode linear
attr recordingmode vector
attr source "throughput(demuxFlow(merge(packetPushedOut, packetPulledOut)))"
attr title "flow specific outgoing data rate"
attr unit bps
vector 208 TwoMasterClocksRingGptpShowcase.tsnClock2.ethernet.macHeaderChecker flowDroppedPacketLengths:vector ETV
attr interpolationmode none
attr recordingmode vector
attr source packetLength(demuxFlow(packetDropped))
attr title "flow specific dropped packet lengths"
attr unit b
vector 209 TwoMasterClocksRingGptpShowcase.tsnClock2.ethernet.macHeaderChecker flowDroppedDataRate:vector ETV
attr interpolationmode linear
attr recordingmode vector
attr source throughput(demuxFlow(packetDropped))
attr title "flow specific dropped data rate"
attr unit bps
vector 210 TwoMasterClocksRingGptpShowcase.tsnClock2.ethernet.fcsChecker incomingPacketLengths:vector ETV
attr interpolationmode none
attr recordingmode vector
attr source "packetLength(merge(packetPushedIn, packetPulledIn))"
attr title "incoming packet lengths"
attr unit b
vector 211 TwoMasterClocksRingGptpShowcase.tsnClock2.ethernet.fcsChecker incomingDataRate:vector ETV
attr interpolationmode linear
attr recordingmode vector
attr source "throughput(merge(packetPushedIn, packetPulledIn))"
attr title "incoming data rate"
attr unit bps
vector 212 TwoMasterClocksRingGptpShowcase.tsnClock2.ethernet.fcsChecker outgoingPacketLengths:vector ETV
attr interpolationmode none
attr recordingmode vector
attr source "packetLength(merge(packetPushedOut, packetPulledOut))"
attr title "outgoing packet lengths"
attr unit b
vector 213 TwoMasterClocksRingGptpShowcase.tsnClock2.ethernet.fcsChecker outgoingDataRate:vector ETV
attr interpolationmode linear
attr recordingmode vector
attr source "throughput(merge(packetPushedOut, packetPulledOut))"
attr title "outgoing data rate"
attr unit bps
vector 214 TwoMasterClocksRingGptpShowcase.tsnClock2.ethernet.fcsChecker droppedPacketLengths:vector ETV
attr interpolationmode none
attr recordingmode vector
attr source packetLength(packetDropped)
attr title "dropped packet lengths"
attr unit b
vector 215 TwoMasterClocksRingGptpShowcase.tsnClock2.ethernet.fcsChecker droppedDataRate:vector ETV
attr interpolationmode linear
attr recordingmode vector
attr source throughput(packetDropped)
attr title "dropped data rate"
attr unit bps
vector 216 TwoMasterClocksRingGptpShowcase.tsnClock2.ethernet.fcsChecker flowIncomingPacketLengths:vector ETV
attr interpolationmode none
attr recordingmode vector
attr source "packetLength(demuxFlow(merge(packetPushedIn, packetPulledIn)))"
attr title "flow specific incoming packet lengths"
attr unit b
vector 217 TwoMasterClocksRingGptpShowcase.tsnClock2.ethernet.fcsChecker flowIncomingDataRate:vector ETV
attr interpolationmode linear
attr recordingmode vector
attr source "throughput(demuxFlow(merge(packetPushedIn, packetPulledIn)))"
attr title "flow specific incoming data rate"
attr unit bps
vector 218 TwoMasterClocksRingGptpShowcase.tsnClock2.ethernet.fcsChecker flowOutgoingPacketLengths:vector ETV
attr interpolationmode none
attr recordingmode vector
attr source "packetLength(demuxFlow(merge(packetPushedOut, packetPulledOut)))"
attr title "flow specific outgoing packet lengths"
attr unit b
vector 219 TwoMasterClocksRingGptpShowcase.tsnClock2.ethernet.fcsChecker flowOutgoingDataRate:vector ETV
attr interpolationmode linear
attr recordingmode vector
attr source "throughput(demuxFlow(merge(packetPushedOut, packetPulledOut)))"
attr title "flow specific outgoing data rate"
attr unit bps
vector 220 TwoMasterClocksRingGptpShowcase.tsnClock2.ethernet.fcsChecker flowDroppedPacketLengths:vector ETV
attr interpolationmode none
attr recordingmode vector
attr source packetLength(demuxFlow(packetDropped))
attr title "flow specific dropped packet lengths"
attr unit b
vector 221 TwoMasterClocksRingGptpShowcase.tsnClock2.ethernet.fcsChecker flowDroppedDataRate:vector ETV
attr interpolationmode linear
attr recordingmode vector
attr source throughput(demuxFlow(packetDropped))
attr title "flow specific dropped data rate"
attr unit bps
vector 222 TwoMasterClocksRingGptpShowcase.tsnClock2.lo[0].lo rcvdPkFromHl:vector(packetBytes) ETV
attr interpolationmode none
attr recordingmode vector(packetBytes)
attr source packetReceivedFromUpper
attr title "packets received from higher layer, packetBytes"
vector 223 TwoMasterClocksRingGptpShowcase.tsnClock2.lo[0].lo passedUpPk:vector(packetBytes) ETV
attr interpolationmode none
attr recordingmode vector(packetBytes)
attr source packetSentToUpper
attr title "packets passed to higher layer, packetBytes"
vector 224 TwoMasterClocksRingGptpShowcase.tsnClock2.lo[0] packetDropInterfaceDown:vector(packetBytes) ETV
attr interpolationmode none
attr recordingmode vector(packetBytes)
attr source packetDropReasonIsInterfaceDown(packetDropped)
attr title "packet drops: interface down, packetBytes"
vector 225 TwoMasterClocksRingGptpShowcase.tsnClock2.lo[0] packetDropNoCarrier:vector(packetBytes) ETV
attr interpolationmode none
attr recordingmode vector(packetBytes)
attr source packetDropReasonIsNoCarrier(packetDropped)
attr title "packet drops: no carrier, packetBytes"
vector 226 TwoMasterClocksRingGptpShowcase.tsnClock2.eth[0].macLayer.queue queueLength:vector ETV
attr autoWarmupFilter false
attr interpolationmode sample-hold
attr recordingmode vector
attr source "warmup(atomic(constant0(packetPushEnded) + count(packetPushStarted) - count(packetPulled) - count(packetRemoved) - count(packetDropped)))"
attr title "queue length"
attr unit pk
vector 227 TwoMasterClocksRingGptpShowcase.tsnClock2.eth[0].macLayer.queue queueBitLength:vector ETV
attr autoWarmupFilter false
attr interpolationmode sample-hold
attr recordingmode vector
attr source "warmup(atomic(constant0(packetPushEnded) + sum(packetLength(packetPushStarted)) - sum(packetLength(packetPulled)) - sum(packetLength(packetRemoved)) - sum(packetLength(packetDropped))))"
attr title "queue bit length"
attr unit b
vector 228 TwoMasterClocksRingGptpShowcase.tsnClock2.eth[0].macLayer.queue queueingTime:vector ETV
attr interpolationmode none
attr recordingmode vector
attr source queueingTime(packetPulled)
attr title "queueing times"
attr unit s
vector 229 TwoMasterClocksRingGptpShowcase.tsnClock2.eth[0].macLayer.queue incomingPacketLengths:vector ETV
attr interpolationmode none
attr recordingmode vector
attr source packetLength(packetPushStarted)
attr title "incoming packet lengths"
attr unit b
vector 230 TwoMasterClocksRingGptpShowcase.tsnClock2.eth[0].macLayer.queue incomingDataRate:vector ETV
attr interpolationmode linear
attr recordingmode vector
attr source throughput(packetPushStarted)
attr title "incoming datarate"
attr unit bps
vector 231 TwoMasterClocksRingGptpShowcase.tsnClock2.eth[0].macLayer.queue outgoingPacketLengths:vector ETV
attr interpolationmode none
attr recordingmode vector
attr source packetLength(packetPulled)
attr title "outgoing packet lengths"
attr unit b
vector 232 TwoMasterClocksRingGptpShowcase.tsnClock2.eth[0].macLayer.queue outgoingDataRate:vector ETV
attr interpolationmode linear
attr recordingmode vector
attr source throughput(packetPulled)
attr title "outgoing datarate"
attr unit bps
vector 233 TwoMasterClocksRingGptpShowcase.tsnClock2.eth[0].macLayer.queue droppedPacketLengthsQueueOverflow:vector ETV
attr interpolationmode none
attr recordingmode vector
attr source packetLength(packetDropReasonIsQueueOverflow(packetDropped))
attr title "dropped packet lengths: queue overflow"
attr unit b
vector 234 TwoMasterClocksRingGptpShowcase.tsnClock2.eth[0].macLayer.queue flowQueueingTime:vector ETV
attr interpolationmode none
attr recordingmode vector
attr source queueingTime(demuxFlow(packetPulled))
attr title "flow queueing times"
attr unit s
vector 235 TwoMasterClocksRingGptpShowcase.tsnClock2.eth[0].macLayer.queue flowIncomingDataRate:vector ETV
attr interpolationmode linear
attr recordingmode vector
attr source throughput(flowPacketLength(demuxFlow(packetPushStarted)))
attr title "flow specific incoming data rate"
attr unit bps
vector 236 TwoMasterClocksRingGptpShowcase.tsnClock2.eth[0].macLayer.queue flowOutgoingDataRate:vector ETV
attr interpolationmode linear
attr recordingmode vector
attr source throughput(flowPacketLength(demuxFlow(packetPulled)))
attr title "flow specific outgoing data rate"
attr unit bps
vector 237 TwoMasterClocksRingGptpShowcase.tsnClock2.eth[0].macLayer.server incomingPacketLengths:vector ETV
attr interpolationmode none
attr recordingmode vector
attr source packetLength(packetPulled)
attr title "incoming packet lengths"
attr unit b
vector 238 TwoMasterClocksRingGptpShowcase.tsnClock2.eth[0].macLayer.server incomingDataRate:vector ETV
attr interpolationmode linear
attr recordingmode vector
attr source throughput(packetPulled)
attr title "incoming datarate"
attr unit bps
vector 239 TwoMasterClocksRingGptpShowcase.tsnClock2.eth[0].macLayer.server outgoingPacketLengths:vector ETV
attr interpolationmode none
attr recordingmode vector
attr source packetLength(packetPushed)
attr title "outgoing packet lengths"
attr unit b
vector 240 TwoMasterClocksRingGptpShowcase.tsnClock2.eth[0].macLayer.server outgoingDataRate:vector ETV
attr interpolationmode linear
attr recordingmode vector
attr source throughput(packetPushed)
attr title "outgoing datarate"
attr unit bps
vector 241 TwoMasterClocksRingGptpShowcase.tsnClock2.eth[0].macLayer.outboundEmitter incomingPacketLengths:vector ETV
attr interpolationmode none
attr recordingmode vector
attr source "packetLength(merge(packetPushedIn, packetPulledIn))"
attr title "incoming packet lengths"
attr unit b
vector 242 TwoMasterClocksRingGptpShowcase.tsnClock2.eth[0].macLayer.outboundEmitter incomingDataRate:vector ETV
attr interpolationmode linear
attr recordingmode vector
attr source "throughput(merge(packetPushedIn, packetPulledIn))"
attr title "incoming data rate"
attr unit bps
vector 243 TwoMasterClocksRingGptpShowcase.tsnClock2.eth[0].macLayer.outboundEmitter outgoingPacketLengths:vector ETV
attr interpolationmode none
attr recordingmode vector
attr source "packetLength(merge(packetPushedOut, packetPulledOut))"
attr title "outgoing packet lengths"
attr unit b
vector 244 TwoMasterClocksRingGptpShowcase.tsnClock2.eth[0].macLayer.outboundEmitter outgoingDataRate:vector ETV
attr interpolationmode linear
attr recordingmode vector
attr source "throughput(merge(packetPushedOut, packetPulledOut))"
attr title "outgoing data rate"
attr unit bps
vector 245 TwoMasterClocksRingGptpShowcase.tsnClock2.eth[0].macLayer.outboundEmitter flowIncomingPacketLengths:vector ETV
attr interpolationmode none
attr recordingmode vector
attr source "packetLength(demuxFlow(merge(packetPushedIn, packetPulledIn)))"
attr title "flow specific incoming packet lengths"
attr unit b
vector 246 TwoMasterClocksRingGptpShowcase.tsnClock2.eth[0].macLayer.outboundEmitter flowIncomingDataRate:vector ETV
attr interpolationmode linear
attr recordingmode vector
attr source "throughput(demuxFlow(merge(packetPushedIn, packetPulledIn)))"
attr title "flow specific incoming data rate"
attr unit bps
vector 247 TwoMasterClocksRingGptpShowcase.tsnClock2.eth[0].macLayer.outboundEmitter flowOutgoingPacketLengths:vector ETV
attr interpolationmode none
attr recordingmode vector
attr source "packetLength(demuxFlow(merge(packetPushedOut, packetPulledOut)))"
attr title "flow specific outgoing packet lengths"
attr unit b
vector 248 TwoMasterClocksRingGptpShowcase.tsnClock2.eth[0].macLayer.outboundEmitter flowOutgoingDataRate:vector ETV
attr interpolationmode linear
attr recordingmode vector
attr source "throughput(demuxFlow(merge(packetPushedOut, packetPulledOut)))"
attr title "flow specific outgoing data rate"
attr unit bps
vector 249 TwoMasterClocksRingGptpShowcase.tsnClock2.eth[0].macLayer.fcsChecker incomingPacketLengths:vector ETV
[...]
3061	1835263 342 74 3964 0.000099997037 2.000125366566 12 576 576 6912 3981312
3062	1835605 486 2756 4424 0.1 3 30 0 23040 69120 1592524800
3063	1836091 342 75 3965 0.000099997037 2.000125366566 12 576 576 6912 3981312
3064	1836433 486 2757 4424 0.1 3 30 0 23040 69120 1592524800
3069	1836919 342 75 3965 0.000099997037 2.000125366566 12 576 576 6912 3981312
3070	1837261 486 2757 4424 0.1 3 30 0 23040 69120 1592524800
3071	1837747 342 75 3965 0.000099997037 2.000125366566 12 576 576 6912 3981312
3072	1838089 486 2757 4424 0.1 3 30 0 23040 69120 1592524800
3073	1838575 342 75 3965 0.000099997037 2.000125366566 12 576 576 6912 3981312
3074	1838917 324 2757 3502 0.1 2 20 0 23040 46080 1061683200
3075	1839241 342 75 3965 0.000099997037 2.000125366566 12 576 576 6912 3981312
3076	1839583 324 2757 3502 0.1 2 20 0 23040 46080 1061683200
3081	1839907 1208 415 4276 0.000120897222 2.000166911022 42 512 752 25200 15411456
3082	1841115 332 1491 3761 0.1 2 20 0 84000 205920 12055219200
3083	1841447 1208 415 4276 0.000120897222 2.000166911022 42 512 752 25200 15411456
3084	1842655 332 1491 3761 0.1 2 20 0 84000 205920 12055219200
3086	1842987 474 4424 4424 0.1 3 30 0 0 0 0
3093	1843461 1208 415 4276 0.000120897222 2.000166911022 42 512 752 25200 15411456
3094	1844669 332 1491 3761 0.1 2 20 0 84000 205920 12055219200
3095	1845001 1208 415 4276 0.000120897222 2.000166911022 42 512 752 25200 15411456
3096	1846209 332 1491 3761 0.1 2 20 0 84000 205920 12055219200
3101	1846541 342 75 3965 0.000099997037 2.000125366566 12 576 576 6912 3981312
3102	1846883 324 2757 3502 0.1 2 20 0 23040 46080 1061683200
3103	1847207 342 75 3965 0.000099997037 2.000125366566 12 640 640 7680 4915200
3104	1847549 324 2757 3502 0.1 2 20 0 25600 51200 1310720000
3109	1847873 638 161 4077 0.000106397037 2.000132726566 24 0 1 12 12
3110	1848511 342 75 3965 0.000099997037 2.000125366566 12 640 640 7680 4915200
3111	1848853 324 2757 3502 0.1 2 20 0 25600 51200 1310720000
3112	1849177 342 75 3965 0.000099997037 2.000125366566 12 640 640 7680 4915200
3113	1849519 324 2757 3502 0.1 2 20 0 25600 51200 1310720000
3118	1849843 637 75 4062 0.000099997037 2.000131766566 24 0 1 12 12
3119	1850480 486 2769 4424 0.1 3 30 0 25600 76800 1966080000
3120	1850966 326 2757 3502 0.1 2 20 0 0.0256 0.0512 0.00131072
3121	1851292 391 161 4062 0.000106397037 2.000131766566 12 6.4e-06 6.4e-06 7.68e-05 4.9152e-10
3123	1851683 1208 415 4276 0.000120897222 2.000166911022 42 576 816 27888 18809088
3124	1852891 332 1491 3761 0.1 2 20 0 92960 227680 14750796800
3125	1853223 1208 415 4276 0.000120897222 2.000166911022 42 512 752 25200 15411456
3126	1854431 332 1491 3761 0.1 2 20 0 84000 205920 12055219200
3128	1854763 474 4424 4424 0.1 3 30 0 0 0 0
3135	1855237 1208 415 4276 0.000120897222 2.000166911022 42 576 816 27888 18809088
3136	1856445 332 1491 3761 0.1 2 20 0 92960 227680 14750796800
3137	1856777 1208 415 4276 0.000120897222 2.000166911022 42 576 816 27888 18809088
3138	1857985 332 1491 3761 0.1 2 20 0 92960 227680 14750796800
3143	1858317 494 1491 4424 0.1 3 30 0 92960 278880 17372236800
3144	1858811 1394 415 4276 0.000120897222 2.000166911022 42 5.76e-06 8.16e-06 0.00027888 1.8809088e-09
3159	1860205 119 1072 2276 0.031309705022 0.281309246642 3 0.031309719619 0.281309719262 0.468929158061 0.10454818500402
3160	1860324 225 1072 2276 0.031309705022 0.281309246642 6 -1.0307154e-05 4.7262e-07 -1.17664e-05 1.1336990408272e-10
3161	1860549 109 1072 2276 0.031309705022 0.281309246642 3 1 1.0000842070025 3.0000846132347 3.0001692335604
3162	1860658 106 961 4140 0.000165057222 2.000137471022 3 4.878e-08 5.0003e-08 1.48786e-07 7.380088418e-15
3164	1860764 79 1286 1888 0.062589528933 0.18758928371 2 0.062589579716 0.187589580077 0.250179159793 0.039107306042491
3165	1860843 147 1286 1888 0.062589528933 0.18758928371 4 5.0783e-08 3.755073e-06 5.957024e-06 1.7631272296708e-11
3166	1860990 68 1286 1888 0.062589528933 0.18758928371 2 0.99997233110967 1 1.9999723311097 1.9999446629849
3167	1861058 103 595 3885 0.000128257222 2.000119139935 3 4.98e-08 5.0381e-08 1.49981e-07 7.498325161e-15
3169	1861161 80 1445 2047 0.093853594756 0.218852374431 2 0.093854221663 0.218852694938 0.312706916601 0.056705117005593
3170	1861241 153 1445 2047 0.093853594756 0.218852374431 4 -1.1367516e-05 6.26907e-07 -1.9425947e-05 2.1082140129798e-10
3171	1861394 68 1445 2047 0.093853594756 0.218852374431 2 1 1.0000935140701 2.0000935140701 2.0001870368851
3172	1861462 106 981 4277 0.000172417222 2.000166911022 3 4.878e-08 5.0955e-08 1.50476e-07 7.550549506e-15
3174	1861568 80 1503 2105 0.125043569675 0.250042349349 2 0.125044499758 0.250042720081 0.375087219839 0.078157488785234
3175	1861648 152 1503 2105 0.125043569675 0.250042349349 4 -3.295109e-06 9.30083e-07 -4.358141e-06 1.7448012564003e-11
3176	1861800 68 1503 2105 0.125043569675 0.250042349349 2 1 1.0000218774301 2.0000218774301 2.0000437553388
3177	1861868 107 913 4270 0.000150337222 2.000159551022 3 5.0153e-08 5.0239e-08 1.5055e-07 7.555105494e-15
3181	1861975 1208 415 4276 0.000120897222 2.000166911022 42 368 608 19152 9024768
3182	1863183 494 1491 4424 0.1 3 30 0 63840 191520 8178969600
3184	1863677 267 1128 4424 0.031339565022 3 7 0.031339583257 3.000005988662 3.938053610883 9.2091909585911
3186	1863944 182 1230 4424 0.062559668933 3 5 0.062559722407 3.000005808904 3.500261548279 9.0782244943515
3188	1864126 187 1359 4424 0.093793874756 3 5 0.093794504779 2.999993508447 3.625180322315 9.1133006411994
3190	1864313 187 1589 4424 0.125103289675 3 5 0.125094291015 2.999988044978 3.750383003793 9.1563261607622
3191	1864500 324 1128 4424 0.031339565022 3 9 0.031339583257 2.999993508447 4.538041767371 9.3891164593295
3192	1864824 341 32 3978 0.000099990858 2.000125833412 12 432 432 5184 2239488
3193	1865165 324 2463 3442 0.1 2 20 0 17280 34560 597196800
3194	1865489 341 32 3978 0.000099990858 2.000125833412 12 544 544 6528 3551232
3195	1865830 324 2463 3442 0.1 2 20 0 21760 43520 946995200
3200	1866154 341 32 3978 0.000099990858 2.000125833412 12 544 544 6528 3551232
3201	1866495 324 2463 3442 0.1 2 20 0 21760 43520 946995200
3202	1866819 341 32 3978 0.000099990858 2.000125833412 12 544 544 6528 3551232
3203	1867160 324 2463 3442 0.1 2 20 0 21760 43520 946995200
3208	1867484 341 32 3978 0.000099990858 2.000125833412 12 544 544 6528 3551232
3209	1867825 324 2463 3442 0.1 2 20 0 21760 43520 946995200
3210	1868149 341 32 3978 0.000099990858 2.000125833412 12 576 576 6912 3981312
3211	1868490 324 2463 3442 0.1 2 20 0 23040 46080 1061683200
3216	1868814 1206 407 4256 0.000120890894 2.000154093447 42 480 720 23856 13841664
3217	1870020 332 1583 3597 0.1 2 20 0 79520 195040 10809420800
3218	1870352 1206 407 4256 0.000120890894 2.000154093447 42 368 608 19152 9024768
3219	1871558 332 1583 3597 0.1 2 20 0 63840 156960 6984576000
3221	1871890 474 4424 4424 0.1 3 30 0 0 0 0
3228	1872364 1206 407 4256 0.000120890894 2.000154093447 42 512 752 25200 15411456
3229	1873570 332 1583 3597 0.1 2 20 0 84000 205920 12055219200
3230	1873902 1206 407 4256 0.000120890894 2.000154093447 42 480 720 23856 13841664
3231	1875108 332 1583 3597 0.1 2 20 0 79520 195040 10809420800
3233	1875440 474 4424 4424 0.1 3 30 0 0 0 0
3244	1875914 636 32 3979 0.000099990858 2.000125833412 24 0 3 18 28
3245	1876550 667 32 3979 0.000099990858 2.000125833412 24 0 1728 10368 9289728
3246	1877217 374 33 3979 0.000099990858 2.000125833412 12 0 2.2063665e-05 4.671369e-05 7.6140952658697e-10
3247	1877591 341 32 3978 0.000099990858 2.000125833412 12 576 576 6912 3981312
3248	1877932 486 2463 4424 0.1 3 30 0 23040 69120 1592524800
3249	1878418 343 33 3979 0.000099990858 2.000125833412 12 576 576 6912 3981312
3250	1878761 486 2464 4424 0.1 3 30 0 23040 69120 1592524800
3255	1879247 343 33 3979 0.000099990858 2.000125833412 12 576 576 6912 3981312
3256	1879590 486 2464 4424 0.1 3 30 0 23040 69120 1592524800
3257	1880076 343 33 3979 0.000099990858 2.000125833412 12 576 576 6912 3981312
3258	1880419 486 2464 4424 0.1 3 30 0 23040 69120 1592524800
3259	1880905 343 33 3979 0.000099990858 2.000125833412 12 576 576 6912 3981312
3260	1881248 324 2464 3443 0.1 2 20 0 23040 46080 1061683200
3261	1881572 343 33 3979 0.000099990858 2.000125833412 12 576 576 6912 3981312
3262	1881915 324 2464 3443 0.1 2 20 0 23040 46080 1061683200
3267	1882239 1206 407 4256 0.000120890894 2.000154093447 42 512 752 25200 15411456
3268	1883445 332 1583 3597 0.1 2 20 0 84000 205920 12055219200
3269	1883777 1206 407 4256 0.000120890894 2.000154093447 42 512 752 25200 15411456
3270	1884983 332 1583 3597 0.1 2 20 0 84000 205920 12055219200
3272	1885315 474 4424 4424 0.1 3 30 0 0 0 0
3279	1885789 1206 407 4256 0.000120890894 2.000154093447 42 512 752 25200 15411456
3280	1886995 332 1583 3597 0.1 2 20 0 84000 205920 12055219200
3281	1887327 1206 407 4256 0.000120890894 2.000154093447 42 512 752 25200 15411456
3282	1888533 332 1583 3597 0.1 2 20 0 84000 205920 12055219200
3287	1888865 343 33 3979 0.000099990858 2.000125833412 12 576 576 6912 3981312
3288	1889208 324 2464 3443 0.1 2 20 0 23040 46080 1061683200
3289	1889532 343 33 3979 0.000099990858 2.000125833412 12 640 640 7680 4915200
3290	1889875 324 2464 3443 0.1 2 20 0 25600 51200 1310720000
3295	1890199 640 153 4082 0.000106390858 2.000133193412 24 0 1 12 12
3296	1890839 343 33 3979 0.000099990858 2.000125833412 12 640 640 7680 4915200
3297	1891182 324 2464 3443 0.1 2 20 0 25600 51200 1310720000
3298	1891506 343 33 3979 0.000099990858 2.000125833412 12 640 640 7680 4915200
3299	1891849 324 2464 3443 0.1 2 20 0 25600 51200 1310720000
3304	1892173 639 33 4069 0.000099990858 2.000132233412 24 0 1 12 12
3305	1892812 486 2473 4424 0.1 3 30 0 25600 76800 1966080000
3306	1893298 326 2464 3443 0.1 2 20 0 0.0256 0.0512 0.00131072
3307	1893624 392 153 4069 0.000106390858 2.000132233412 12 6.4e-06 6.4e-06 7.68e-05 4.9152e-10
3309	1894016 1206 407 4256 0.000120890894 2.000154093447 42 576 816 27888 18809088
3310	1895222 332 1583 3597 0.1 2 20 0 92960 227680 14750796800
3311	1895554 1206 407 4256 0.000120890894 2.000154093447 42 512 752 25200 15411456
3312	1896760 332 1583 3597 0.1 2 20 0 84000 205920 12055219200
3314	1897092 474 4424 4424 0.1 3 30 0 0 0 0
3321	1897566 1206 407 4256 0.000120890894 2.000154093447 42 576 816 27888 18809088
3322	1898772 332 1583 3597 0.1 2 20 0 92960 227680 14750796800
3323	1899104 1206 407 4256 0.000120890894 2.000154093447 42 576 816 27888 18809088
3324	1900310 332 1583 3597 0.1 2 20 0 92960 227680 14750796800
3329	1900642 494 1583 4424 0.1 3 30 0 92960 278880 17372236800
3330	1901136 1392 407 4256 0.000120890894 2.000154093447 42 5.76e-06 8.16e-06 0.00027888 1.8809088e-09
3345	1902528 120 1128 2332 0.031339565022 0.281339106642 3 0.031339583257 0.281339580773 0.469018746549 0.10457619425047
3346	1902648 223 1128 2332 0.031339565022 0.281339106642 6 1.8235e-08 8.333717e-06 1.1556203e-05 7.4251286847971e-11
3347	1902871 109 1128 2332 0.031339565022 0.281339106642 3 0.9999351038754 1.0000004048722 2.9999355087476 2.9998710217068
3348	1902980 107 909 4033 0.000150330894 2.000129639898 3 5.0003e-08 5.0981e-08 1.50989e-07 7.599862395e-15
3350	1903087 77 1230 1832 0.062559668933 0.18755942371 2 0.062559722407 0.1875597221 0.250119444507 0.03909236822187
3351	1903164 146 1230 1832 0.062559668933 0.18755942371 4 5.3474e-08 1.148233e-05 1.7554089e-05 1.646529971007e-10
3352	1903310 68 1230 1832 0.062559668933 0.18755942371 2 0.99991053648422 1 1.9999105364842 1.9998210809722
3353	1903378 106 587 3707 0.000128250894 2.000107559898 3 4.9352e-08 5.0695e-08 1.49399e-07 7.441222833e-15
3355	1903484 80 1359 1961 0.093793874756 0.218792654431 2 0.093794504779 0.218792978148 0.312587482927 0.056667776413609
3356	1903564 149 1359 1961 0.093793874756 0.218792654431 4 3.23717e-07 7.583874e-06 1.3755494e-05 8.5243138218894e-11
3357	1903713 69 1359 1961 0.093793874756 0.218792654431 2 0.99994192140796 1 1.999941921408 1.999883846189
3358	1903782 107 957 4137 0.000165050894 2.000136999898 3 4.9365e-08 4.9974e-08 1.48807e-07 7.381386925e-15
3360	1903889 80 1589 2191 0.125103289675 0.250102069349 2 0.125104219946 0.250102439376 0.375206659322 0.078202296030123
3361	1903969 151 1589 2191 0.125103289675 0.250102069349 4 -8.99866e-06 9.30271e-07 -1.5759233e-05 1.4695584718841e-10
3362	1904120 68 1589 2191 0.125103289675 0.250102069349 2 1 1.0000674526943 2.0000674526943 2.0001349099385
3363	1904188 106 977 4257 0.000172410894 2.000154093447 3 4.804e-08 5.0489e-08 1.49017e-07 7.406018865e-15
3367	1904294 1206 407 4256 0.000120890894 2.000154093447 42 368 608 19152 9024768
3368	1905500 494 1583 4424 0.1 3 30 0 63840 191520 8178969600
3370	1905994 264 1144 4424 0.031354495022 3 7 0.031354513498 3.000005987942 3.938144361454 9.2092192731486
3372	1906258 185 1202 4424 0.062544738933 3 5 0.062544792477 3.000005808127 3.500198560489 9.0782086000728
3374	1906443 187 1387 4424 0.093808804756 3 5 0.093809435642 2.999993507155 3.625248816851 9.1133222023403
3376	1906630 186 1573 4424 0.125088359675 3 5 0.12508769941 2.999988055028 3.750339967741 9.1563100699772
3377	1906816 321 1144 4424 0.031354495022 3 9 0.031354513498 2.999993507155 4.538132518192 9.3891447709482
3378	1907137 341 26 3722 0.000099990429 2.000109158266 12 432 432 5184 2239488
3379	1907478 324 2458 3445 0.1 2 20 0 17280 34560 597196800
3380	1907802 341 26 3722 0.000099990429 2.000109158266 12 544 544 6528 3551232
3381	1908143 324 2458 3445 0.1 2 20 0 21760 43520 946995200
3386	1908467 341 26 3722 0.000099990429 2.000109158266 12 544 544 6528 3551232
3387	1908808 324 2458 3445 0.1 2 20 0 21760 43520 946995200
3388	1909132 341 26 3722 0.000099990429 2.000109158266 12 544 544 6528 3551232
3389	1909473 324 2458 3445 0.1 2 20 0 21760 43520 946995200
3394	1909797 341 26 3722 0.000099990429 2.000109158266 12 544 544 6528 3551232
3395	1910138 324 2458 3445 0.1 2 20 0 21760 43520 946995200
3396	1910462 341 26 3722 0.000099990429 2.000109158266 12 576 576 6912 3981312
3397	1910803 324 2458 3445 0.1 2 20 0 23040 46080 1061683200
3402	1911127 1192 405 4259 0.00012089032 2.00015498759 42 480 720 23856 13841664
3403	1912319 332 1561 3631 0.1 2 20 0 79520 195040 10809420800
3404	1912651 1192 405 4259 0.00012089032 2.00015498759 42 368 608 19152 9024768
3405	1913843 332 1561 3631 0.1 2 20 0 63840 156960 6984576000
3407	1914175 474 4424 4424 0.1 3 30 0 0 0 0
3414	1914649 1192 405 4259 0.00012089032 2.00015498759 42 512 752 25200 15411456
3415	1915841 332 1561 3631 0.1 2 20 0 84000 205920 12055219200
3416	1916173 1192 405 4259 0.00012089032 2.00015498759 42 480 720 23856 13841664
3417	1917365 332 1561 3631 0.1 2 20 0 79520 195040 10809420800
3419	1917697 474 4424 4424 0.1 3 30 0 0 0 0
3430	1918171 636 26 3723 0.000099990429 2.000109158266 24 0 3 20 32
3431	1918807 670 26 3723 0.000099990429 2.000109158266 24 0 1728 11520 10616832
3432	1919477 387 27 3723 0.000099990429 2.000109158266 12 0 2.2069902e-05 7.0543784e-05 1.0115384457183e-09
3433	1919864 341 26 3722 0.000099990429 2.000109158266 12 576 576 6912 3981312
3434	1920205 486 2458 4424 0.1 3 30 0 23040 69120 1592524800
3435	1920691 343 27 3723 0.000099990429 2.000109158266 12 576 576 6912 3981312
3436	1921034 486 2459 4424 0.1 3 30 0 23040 69120 1592524800
3441	1921520 343 27 3723 0.000099990429 2.000109158266 12 576 576 6912 3981312
3442	1921863 486 2459 4424 0.1 3 30 0 23040 69120 1592524800
3443	1922349 343 27 3723 0.000099990429 2.000109158266 12 576 576 6912 3981312
3444	1922692 486 2459 4424 0.1 3 30 0 23040 69120 1592524800
3445	1923178 343 27 3723 0.000099990429 2.000109158266 12 576 576 6912 3981312
3446	1923521 324 2459 3446 0.1 2 20 0 23040 46080 1061683200
3447	1923845 343 27 3723 0.000099990429 2.000109158266 12 576 576 6912 3981312
3448	1924188 324 2459 3446 0.1 2 20 0 23040 46080 1061683200
3453	1924512 1192 405 4259 0.00012089032 2.00015498759 42 512 752 25200 15411456
3454	1925704 332 1561 3631 0.1 2 20 0 84000 205920 12055219200
3455	1926036 1192 405 4259 0.00012089032 2.00015498759 42 512 752 25200 15411456
3456	1927228 332 1561 3631 0.1 2 20 0 84000 205920 12055219200
3458	1927560 474 4424 4424 0.1 3 30 0 0 0 0
3465	1928034 1192 405 4259 0.00012089032 2.00015498759 42 512 752 25200 15411456
3466	1929226 332 1561 3631 0.1 2 20 0 84000 205920 12055219200
3467	1929558 1192 405 4259 0.00012089032 2.00015498759 42 512 752 25200 15411456
3468	1930750 332 1561 3631 0.1 2 20 0 84000 205920 12055219200
3473	1931082 343 27 3723 0.000099990429 2.000109158266 12 576 576 6912 3981312
3474	1931425 324 2459 3446 0.1 2 20 0 23040 46080 1061683200
3475	1931749 343 27 3723 0.000099990429 2.000109158266 12 640 640 7680 4915200
3476	1932092 324 2459 3446 0.1 2 20 0 25600 51200 1310720000
3481	1932416 640 151 3838 0.000106390429 2.000116518266 24 0 1 12 12
3482	1933056 343 27 3723 0.000099990429 2.000109158266 12 640 640 7680 4915200
3483	1933399 324 2459 3446 0.1 2 20 0 25600 51200 1310720000
3484	1933723 343 27 3723 0.000099990429 2.000109158266 12 640 640 7680 4915200
3485	1934066 324 2459 3446 0.1 2 20 0 25600 51200 1310720000
3490	1934390 639 27 3812 0.000099990429 2.000115558266 24 0 1 12 12
3491	1935029 486 2465 4424 0.1 3 30 0 25600 76800 1966080000
3492	1935515 326 2459 3446 0.1 2 20 0 0.0256 0.0512 0.00131072
3493	1935841 392 151 3812 0.000106390429 2.000115558266 12 6.4e-06 6.4e-06 7.68e-05 4.9152e-10
3495	1936233 1192 405 4259 0.00012089032 2.00015498759 42 576 816 27888 18809088
3496	1937425 332 1561 3631 0.1 2 20 0 92960 227680 14750796800
3497	1937757 1192 405 4259 0.00012089032 2.00015498759 42 512 752 25200 15411456
3498	1938949 332 1561 3631 0.1 2 20 0 84000 205920 12055219200
3500	1939281 474 4424 4424 0.1 3 30 0 0 0 0
3507	1939755 1192 405 4259 0.00012089032 2.00015498759 42 576 816 27888 18809088
3508	1940947 332 1561 3631 0.1 2 20 0 92960 227680 14750796800
3509	1941279 1192 405 4259 0.00012089032 2.00015498759 42 576 816 27888 18809088
3510	1942471 332 1561 3631 0.1 2 20 0 92960 227680 14750796800
3515	1942803 494 1561 4424 0.1 3 30 0 92960 278880 17372236800
3516	1943297 1378 405 4259 0.00012089032 2.00015498759 42 5.76e-06 8.16e-06 0.00027888 1.8809088e-09
3531	1944675 120 1144 2348 0.031354495022 0.281354036642 3 0.031354513498 0.281354510887 0.469063537122 0.10459019996638
3532	1944795 223 1144 2348 0.031354495022 0.281354036642 6 1.8476e-08 9.268765e-06 1.2727494e-05 9.1748135219218e-11
3533	1945018 109 1144 2348 0.031354495022 0.281354036642 3 0.9999276262539 1.0000004047762 2.9999280310301 2.9998560672983
3534	1945127 105 955 4226 0.00016505032 2.00014762759 3 5.0005e-08 5.0747e-08 1.50757e-07 7.576258059e-15
3536	1945232 79 1202 1804 0.062544738933 0.18754449371 2 0.062544792477 0.187544792133 0.25008958461 0.039084900122201
3537	1945311 147 1202 1804 0.062544738933 0.18754449371 4 5.3544e-08 9.305707e-06 1.4287076e-05 1.0811946889432e-10
3538	1945458 68 1202 1804 0.062544738933 0.18754449371 2 0.99992794691982 1 1.9999279469198 1.9998558990313
3539	1945526 105 907 3743 0.00015033032 2.00011082759 3 4.9478e-08 5.0853e-08 1.4981e-07 7.482271534e-15
3541	1945631 80 1387 1989 0.093808804756 0.218807584431 2 0.093809435642 0.218807908917 0.312617344559 0.056677111220101
3542	1945711 151 1387 1989 0.093808804756 0.218807584431 4 3.24486e-07 1.2596228e-05 2.2531322e-05 2.3980367533446e-10
3543	1945862 69 1387 1989 0.093808804756 0.218807584431 2 0.99990183450232 1 1.9999018345023 1.9998036786411
3544	1945931 105 585 4081 0.00012825032 2.00013290759 3 4.8927e-08 5.0596e-08 1.48811e-07 7.383113489e-15
3546	1946036 80 1573 2175 0.125088359675 0.250087139349 2 0.125089291202 0.250087511017 0.375176802219 0.078191093940097
3547	1946116 149 1573 2175 0.125088359675 0.250087139349 4 -6.60265e-07 9.31527e-07 9.14665e-07 1.515669434403e-12
3548	1946265 67 1573 2175 0.125088359675 0.250087139349 2 1 1.000000799476 2.000000799476 2.0000015989527
3549	1946332 104 975 4260 0.00017241032 2.00015498759 3 5.0006e-08 5.0236e-08 1.50252e-07 7.525255832e-15
3553	1946436 1192 405 4259 0.00012089032 2.00015498759 42 368 608 19152 9024768
3554	1947628 494 1561 4424 0.1 3 30 0 63840 191520 8178969600

