file 4448834 1752588014                                         
version 3
run RingFailover-0-20250715-10:59:06-9622
attr configname RingFailover
attr datetime 20250715-10:59:06
attr datetimef 20250715-105906
attr experiment RingFailover
attr inifile omnetpp.ini
attr iterationvars ""
attr iterationvarsd ""
attr iterationvarsf ""
attr measurement ""
attr network TwoMasterClocksRingGptpShowcase
attr processid 9622
attr repetition 0
attr replication #0
attr resultdir results
attr runnumber 0
attr seedset 0
config image-path ../../../../images
config extends TwoMasterClocksExploitingNetworkRedundancy
config description "Ring topology with primary master fail‑over em 0.3 s"
config network TwoMasterClocksRingGptpShowcase
config experiment-label RingFailover
config *.scenarioManager.typename ScenarioManager
config *.scenarioManager.script "xmldoc(\"failover.xml\")"
config network TwoMasterClocksRingGptpShowcase
config description "Ring topology with redundant time synchronization domains"
config experiment-label RingFailover
config *.tsnClock2.clock.typename MultiClock
config *.tsnClock2.clock.numClocks 2
config *.tsnClock*.gptp.typename MultiDomainGptp
config *.tsnClock1.gptp.numDomains 2
config *.tsnClock1.gptp.domain[0..1].clockModule "\"tsnClock1.clock\""
config *.tsnClock1.gptp.domain[0].masterPorts "[\"eth0\"]"
config *.tsnClock1.gptp.domain[1].masterPorts "[\"eth0\"]"
config *.tsnClock2.gptp.numDomains 4
config *.tsnClock2.gptp.domain[2..3].clockModule "\"tsnClock2.clock\""
config *.tsnClock2.gptp.domain[0].gptpNodeType "\"SLAVE_NODE\""
config *.tsnClock2.gptp.domain[0].slavePort "\"eth0\""
config *.tsnClock2.gptp.domain[1].gptpNodeType "\"SLAVE_NODE\""
config *.tsnClock2.gptp.domain[1].slavePort "\"eth0\""
config *.tsnClock2.gptp.domain[2].gptpNodeType "\"MASTER_NODE\""
config *.tsnClock2.gptp.domain[2].masterPorts "[\"eth0\"]"
config *.tsnClock2.gptp.domain[3].gptpNodeType "\"MASTER_NODE\""
config *.tsnClock2.gptp.domain[3].masterPorts "[\"eth0\"]"
config *.tsnSwitch*.clock.typename MultiClock
config *.tsnSwitch*.clock.numClocks 4
config *.tsnSwitch*.gptp.typename MultiDomainGptp
config *.tsnSwitch*.gptp.numDomains 4
config *.tsnSwitch1.gptp.domain[0].masterPorts "[\"eth1\"]"
config *.tsnSwitch1.gptp.domain[0].slavePort "\"eth0\""
config *.tsnSwitch1.gptp.domain[1].masterPorts "[\"eth2\"]"
config *.tsnSwitch1.gptp.domain[1].slavePort "\"eth0\""
config *.tsnSwitch1.gptp.domain[2].masterPorts "[\"eth1\"]"
config *.tsnSwitch1.gptp.domain[2].slavePort "\"eth2\""
config *.tsnSwitch1.gptp.domain[3].masterPorts "[\"eth2\"]"
config *.tsnSwitch1.gptp.domain[3].slavePort "\"eth1\""
config *.tsnSwitch2.gptp.domain[0].masterPorts "[\"eth1\", \"eth2\"]"
config *.tsnSwitch2.gptp.domain[0].slavePort "\"eth0\""
config *.tsnSwitch2.gptp.domain[1].masterPorts "[\"eth2\"]"
config *.tsnSwitch2.gptp.domain[1].slavePort "\"eth1\""
config *.tsnSwitch2.gptp.domain[2].masterPorts "[\"eth1\", \"eth2\"]"
config *.tsnSwitch2.gptp.domain[2].slavePort "\"eth0\""
config *.tsnSwitch2.gptp.domain[3].masterPorts "[\"eth0\", \"eth2\"]"
config *.tsnSwitch2.gptp.domain[3].slavePort "\"eth1\""
config *.tsnSwitch3.gptp.domain[0].masterPorts "[\"eth1\", \"eth2\"]"
config *.tsnSwitch3.gptp.domain[0].slavePort "\"eth0\""
config *.tsnSwitch3.gptp.domain[1].masterPorts "[\"eth0\", \"eth2\"]"
config *.tsnSwitch3.gptp.domain[1].slavePort "\"eth1\""
config *.tsnSwitch3.gptp.domain[2].masterPorts "[\"eth2\"]"
config *.tsnSwitch3.gptp.domain[2].slavePort "\"eth0\""
config *.tsnSwitch3.gptp.domain[3].masterPorts "[\"eth0\", \"eth2\"]"
config *.tsnSwitch3.gptp.domain[3].slavePort "\"eth1\""
config *.tsnSwitch4.gptp.domain[0].masterPorts "[\"eth0\", \"eth2\"]"
config *.tsnSwitch4.gptp.domain[0].slavePort "\"eth1\""
config *.tsnSwitch4.gptp.domain[1].masterPorts "[\"eth0\", \"eth1\"]"
config *.tsnSwitch4.gptp.domain[1].slavePort "\"eth2\""
config *.tsnSwitch4.gptp.domain[2].masterPorts "[\"eth2\"]"
config *.tsnSwitch4.gptp.domain[2].slavePort "\"eth0\""
config *.tsnSwitch4.gptp.domain[3].masterPorts "[\"eth1\"]"
config *.tsnSwitch4.gptp.domain[3].slavePort "\"eth0\""
config *.tsnSwitch5.gptp.domain[0].masterPorts "[\"eth1\", \"eth2\"]"
config *.tsnSwitch5.gptp.domain[0].slavePort "\"eth0\""
config *.tsnSwitch5.gptp.domain[1].masterPorts "[\"eth0\", \"eth2\"]"
config *.tsnSwitch5.gptp.domain[1].slavePort "\"eth1\""
config *.tsnSwitch5.gptp.domain[2].masterPorts "[\"eth1\", \"eth2\"]"
config *.tsnSwitch5.gptp.domain[2].slavePort "\"eth0\""
config *.tsnSwitch5.gptp.domain[3].masterPorts "[\"eth2\"]"
config *.tsnSwitch5.gptp.domain[3].slavePort "\"eth1\""
config *.tsnSwitch6.gptp.domain[0].masterPorts "[\"eth2\"]"
config *.tsnSwitch6.gptp.domain[0].slavePort "\"eth0\""
config *.tsnSwitch6.gptp.domain[1].masterPorts "[\"eth0\", \"eth2\"]"
config *.tsnSwitch6.gptp.domain[1].slavePort "\"eth1\""
config *.tsnSwitch6.gptp.domain[2].masterPorts "[\"eth1\", \"eth2\"]"
config *.tsnSwitch6.gptp.domain[2].slavePort "\"eth0\""
config *.tsnSwitch6.gptp.domain[3].masterPorts "[\"eth0\", \"eth2\"]"
config *.tsnSwitch6.gptp.domain[3].slavePort "\"eth1\""
config *.tsnDevice*.clock.typename MultiClock
config *.tsnDevice*.clock.numClocks 4
config *.tsnDevice*.gptp.typename MultiDomainGptp
config *.tsnDevice*.gptp.numDomains 4
config *.tsnDevice1.gptp.clockModule "\"tsnDevice1.clock\""
config *.tsnDevice2.gptp.clockModule "\"tsnDevice2.clock\""
config *.tsnDevice3.gptp.clockModule "\"tsnDevice3.clock\""
config *.tsnDevice4.gptp.clockModule "\"tsnDevice4.clock\""
config *.tsnDevice*.gptp.domain[*].slavePort "\"eth0\""
config **.pdelayInitialOffset 0.1ms
config *.*.gptp.domain[0].syncInitialOffset "syncInterval * 1 / 4"
config *.*.gptp.domain[1].syncInitialOffset "syncInterval * 2 / 4"
config *.*.gptp.domain[2].syncInitialOffset "syncInterval * 3 / 4"
config *.*.gptp.domain[3].syncInitialOffset "syncInterval * 4 / 4"
config *.visualizer.typename IntegratedMultiCanvasVisualizer
config *.visualizer.numDataLinkVisualizers 4
config *.visualizer.dataLinkVisualizer[*].displayLinks true
config *.visualizer.dataLinkVisualizer[*].activityLevel "\"protocol\""
config *.visualizer.dataLinkVisualizer[0].packetFilter "expr(has(GptpSync) && GptpSync.domainNumber == 0)"
config *.visualizer.dataLinkVisualizer[1].packetFilter "expr(has(GptpSync) && GptpSync.domainNumber == 1)"
config *.visualizer.dataLinkVisualizer[2].packetFilter "expr(has(GptpSync) && GptpSync.domainNumber == 2)"
config *.visualizer.dataLinkVisualizer[3].packetFilter "expr(has(GptpSync) && GptpSync.domainNumber == 3)"
config *.visualizer.dataLinkVisualizer[0].tags "\"primary GM domain0\""
config *.visualizer.dataLinkVisualizer[1].tags "\"primary GM domain1\""
config *.visualizer.dataLinkVisualizer[2].tags "\"hot-standby GM domain0\""
config *.visualizer.dataLinkVisualizer[3].tags "\"hot-standby GM domain1\""
config *.visualizer.dataLinkVisualizer[0].lineColor "\"blue4\""
config *.visualizer.dataLinkVisualizer[1].lineColor "\"blue1\""
config *.visualizer.dataLinkVisualizer[2].lineColor "\"red4\""
config *.visualizer.dataLinkVisualizer[3].lineColor "\"red1\""
config *.tsnClock1.clock.referenceClock "\"tsnClock1.clock\""
config *.tsnClock2.clock.clock[*].referenceClock "\"tsnClock1.clock\""
config *.tsnSwitch*.clock.clock[0..1].referenceClock "\"tsnClock1.clock\""
config *.tsnDevice*.clock.clock[0..1].referenceClock "\"tsnClock1.clock\""
config *.tsnSwitch*.clock.clock[2..3].referenceClock "\"tsnClock2.clock.clock[1]\""
config *.tsnDevice*.clock.clock[2..3].referenceClock "\"tsnClock2.clock.clock[1]\""
config *.tsnSwitch*.clock.clock[*].displayStringTextFormat "\"%d\""
config *.tsnDevice*.clock.clock[*].displayStringTextFormat "\"%d\""
config *.tsnClock1.clock.displayStringTextFormat "\"time: %T\""
config *.tsnClock2.clock.clock*.displayStringTextFormat "\"time: %T\\ndiff: %d\""
config *.visualizer.numInfoVisualizers 11
config *.visualizer.infoVisualizer[0].modules "\"*.tsnClock1.clock\""
config *.visualizer.infoVisualizer[0].textColor "\"blue4\""
config *.visualizer.infoVisualizer[1].modules "\"*.tsnSwitch1.*.clock[0] or *.tsnSwitch2.*.clock[0] or *.tsnSwitch6.*.clock[0] or *.tsnDevice1.*.clock[0] or *.tsnDevice4.*.clock[0]\""
config *.visualizer.infoVisualizer[1].textColor "\"blue4\""
config *.visualizer.infoVisualizer[2].modules "\"*.tsnSwitch1.*.clock[1] or *.tsnSwitch2.*.clock[1] or *.tsnSwitch6.*.clock[1] or *.tsnDevice1.*.clock[1] or *.tsnDevice4.*.clock[1]\""
config *.visualizer.infoVisualizer[2].textColor "\"blue1\""
config *.visualizer.infoVisualizer[3].modules "\"*.tsnSwitch1.*.clock[2] or *.tsnSwitch2.*.clock[2] or *.tsnSwitch6.*.clock[2] or *.tsnDevice1.*.clock[2] or *.tsnDevice4.*.clock[2]\""
config *.visualizer.infoVisualizer[3].textColor "\"red4\""
config *.visualizer.infoVisualizer[4].modules "\"*.tsnSwitch1.*.clock[3] or *.tsnSwitch2.*.clock[3] or *.tsnSwitch6.*.clock[3] or *.tsnDevice1.*.clock[3] or *.tsnDevice4.*.clock[3]\""
config *.visualizer.infoVisualizer[4].textColor "\"red1\""
config *.visualizer.infoVisualizer[5].modules "\"*.tsnDevice2.*.clock[0] or *.tsnDevice3.*.clock[0] or *.tsnSwitch3.*.clock[0] or *.tsnSwitch4.*.clock[0] or *.tsnSwitch5.*.clock[0]\""
config *.visualizer.infoVisualizer[5].textColor "\"blue4\""
config *.visualizer.infoVisualizer[6].modules "\"*.tsnDevice2.*.clock[1] or *.tsnDevice3.*.clock[1] or *.tsnSwitch3.*.clock[1] or *.tsnSwitch4.*.clock[1] or *.tsnSwitch5.*.clock[1]\""
config *.visualizer.infoVisualizer[6].textColor "\"blue1\""
config *.visualizer.infoVisualizer[7].modules "\"*.tsnDevice2.*.clock[2] or *.tsnDevice3.*.clock[2] or *.tsnSwitch3.*.clock[2] or *.tsnSwitch4.*.clock[2] or *.tsnSwitch5.*.clock[2]\""
config *.visualizer.infoVisualizer[7].textColor "\"red4\""
config *.visualizer.infoVisualizer[8].modules "\"*.tsnDevice2.*.clock[3] or *.tsnDevice3.*.clock[3] or *.tsnSwitch3.*.clock[3] or *.tsnSwitch4.*.clock[3] or *.tsnSwitch5.*.clock[3]\""
config *.visualizer.infoVisualizer[8].textColor "\"red1\""
config *.visualizer.infoVisualizer[9].modules "\"*.tsnClock2.*.clock[0]\""
config *.visualizer.infoVisualizer[9].textColor "\"red4\""
config *.visualizer.infoVisualizer[10].modules "\"*.tsnClock2.*.clock[1]\""
config *.visualizer.infoVisualizer[10].textColor "\"red1\""
config *.visualizer.infoVisualizer[5..10].placementHint "\"bottom\""
config experiment-label RingFailover
config sim-time-limit 4s
config description abstract
config *.*.hasTimeSynchronization true
config **.tsnClock*.clock.oscillator.typename RandomDriftOscillator
config **.oscillator.changeInterval 12.5ms
config **.oscillator.driftRate "uniform(-100ppm, 100ppm)"
config **.oscillator.driftRateChange "uniform(-1ppm, 1ppm)"
config **.oscillator.driftRateChangeUpperLimit 100ppm
config **.oscillator.driftRateChangeLowerLimit -100ppm
config *.*.eth[*].bitrate 100Mbps
config *.visualizer.typename IntegratedMultiCanvasVisualizer
config *.visualizer.infoVisualizer[*].displayInfos true

vector 0 TwoMasterClocksRingGptpShowcase.tsnClock1.clock.oscillator driftRateChanged:vector ETV
attr interpolationmode sample-hold
attr recordingmode vector
attr title "Oscillator drift rate"
attr unit ppm
vector 1 TwoMasterClocksRingGptpShowcase.tsnClock1.clock timeChanged:vector ETV
attr interpolationmode linear
attr recordingmode vector
attr title "Clock time"
vector 2 TwoMasterClocksRingGptpShowcase.tsnClock1.ethernet.macHeaderInserter incomingPacketLengths:vector ETV
attr interpolationmode none
attr recordingmode vector
attr source "packetLength(merge(packetPushedIn, packetPulledIn))"
attr title "incoming packet lengths"
attr unit b
vector 3 TwoMasterClocksRingGptpShowcase.tsnClock1.ethernet.macHeaderInserter incomingDataRate:vector ETV
attr interpolationmode linear
attr recordingmode vector
attr source "throughput(merge(packetPushedIn, packetPulledIn))"
attr title "incoming data rate"
attr unit bps
vector 4 TwoMasterClocksRingGptpShowcase.tsnClock1.ethernet.macHeaderInserter outgoingPacketLengths:vector ETV
attr interpolationmode none
attr recordingmode vector
attr source "packetLength(merge(packetPushedOut, packetPulledOut))"
attr title "outgoing packet lengths"
attr unit b
vector 5 TwoMasterClocksRingGptpShowcase.tsnClock1.ethernet.macHeaderInserter outgoingDataRate:vector ETV
attr interpolationmode linear
attr recordingmode vector
attr source "throughput(merge(packetPushedOut, packetPulledOut))"
attr title "outgoing data rate"
attr unit bps
vector 6 TwoMasterClocksRingGptpShowcase.tsnClock1.ethernet.macHeaderInserter flowIncomingPacketLengths:vector ETV
attr interpolationmode none
attr recordingmode vector
attr source "packetLength(demuxFlow(merge(packetPushedIn, packetPulledIn)))"
attr title "flow specific incoming packet lengths"
attr unit b
vector 7 TwoMasterClocksRingGptpShowcase.tsnClock1.ethernet.macHeaderInserter flowIncomingDataRate:vector ETV
attr interpolationmode linear
attr recordingmode vector
attr source "throughput(demuxFlow(merge(packetPushedIn, packetPulledIn)))"
attr title "flow specific incoming data rate"
attr unit bps
vector 8 TwoMasterClocksRingGptpShowcase.tsnClock1.ethernet.macHeaderInserter flowOutgoingPacketLengths:vector ETV
attr interpolationmode none
attr recordingmode vector
attr source "packetLength(demuxFlow(merge(packetPushedOut, packetPulledOut)))"
attr title "flow specific outgoing packet lengths"
attr unit b
vector 9 TwoMasterClocksRingGptpShowcase.tsnClock1.ethernet.macHeaderInserter flowOutgoingDataRate:vector ETV
attr interpolationmode linear
attr recordingmode vector
attr source "throughput(demuxFlow(merge(packetPushedOut, packetPulledOut)))"
attr title "flow specific outgoing data rate"
attr unit bps
vector 10 TwoMasterClocksRingGptpShowcase.tsnClock1.ethernet.paddingInserter incomingPacketLengths:vector ETV
attr interpolationmode none
attr recordingmode vector
attr source "packetLength(merge(packetPushedIn, packetPulledIn))"
attr title "incoming packet lengths"
attr unit b
vector 11 TwoMasterClocksRingGptpShowcase.tsnClock1.ethernet.paddingInserter incomingDataRate:vector ETV
attr interpolationmode linear
attr recordingmode vector
attr source "throughput(merge(packetPushedIn, packetPulledIn))"
attr title "incoming data rate"
attr unit bps
vector 12 TwoMasterClocksRingGptpShowcase.tsnClock1.ethernet.paddingInserter outgoingPacketLengths:vector ETV
attr interpolationmode none
attr recordingmode vector
attr source "packetLength(merge(packetPushedOut, packetPulledOut))"
attr title "outgoing packet lengths"
attr unit b
vector 13 TwoMasterClocksRingGptpShowcase.tsnClock1.ethernet.paddingInserter outgoingDataRate:vector ETV
attr interpolationmode linear
attr recordingmode vector
attr source "throughput(merge(packetPushedOut, packetPulledOut))"
attr title "outgoing data rate"
attr unit bps
vector 14 TwoMasterClocksRingGptpShowcase.tsnClock1.ethernet.paddingInserter flowIncomingPacketLengths:vector ETV
attr interpolationmode none
attr recordingmode vector
attr source "packetLength(demuxFlow(merge(packetPushedIn, packetPulledIn)))"
attr title "flow specific incoming packet lengths"
attr unit b
vector 15 TwoMasterClocksRingGptpShowcase.tsnClock1.ethernet.paddingInserter flowIncomingDataRate:vector ETV
attr interpolationmode linear
attr recordingmode vector
attr source "throughput(demuxFlow(merge(packetPushedIn, packetPulledIn)))"
attr title "flow specific incoming data rate"
attr unit bps
vector 16 TwoMasterClocksRingGptpShowcase.tsnClock1.ethernet.paddingInserter flowOutgoingPacketLengths:vector ETV
attr interpolationmode none
attr recordingmode vector
attr source "packetLength(demuxFlow(merge(packetPushedOut, packetPulledOut)))"
attr title "flow specific outgoing packet lengths"
attr unit b
vector 17 TwoMasterClocksRingGptpShowcase.tsnClock1.ethernet.paddingInserter flowOutgoingDataRate:vector ETV
attr interpolationmode linear
attr recordingmode vector
attr source "throughput(demuxFlow(merge(packetPushedOut, packetPulledOut)))"
attr title "flow specific outgoing data rate"
attr unit bps
vector 18 TwoMasterClocksRingGptpShowcase.tsnClock1.ethernet.fcsInserter incomingPacketLengths:vector ETV
attr interpolationmode none
attr recordingmode vector
attr source "packetLength(merge(packetPushedIn, packetPulledIn))"
attr title "incoming packet lengths"
attr unit b
vector 19 TwoMasterClocksRingGptpShowcase.tsnClock1.ethernet.fcsInserter incomingDataRate:vector ETV
attr interpolationmode linear
attr recordingmode vector
attr source "throughput(merge(packetPushedIn, packetPulledIn))"
attr title "incoming data rate"
attr unit bps
vector 20 TwoMasterClocksRingGptpShowcase.tsnClock1.ethernet.fcsInserter outgoingPacketLengths:vector ETV
attr interpolationmode none
attr recordingmode vector
attr source "packetLength(merge(packetPushedOut, packetPulledOut))"
attr title "outgoing packet lengths"
attr unit b
vector 21 TwoMasterClocksRingGptpShowcase.tsnClock1.ethernet.fcsInserter outgoingDataRate:vector ETV
attr interpolationmode linear
attr recordingmode vector
attr source "throughput(merge(packetPushedOut, packetPulledOut))"
attr title "outgoing data rate"
attr unit bps
vector 22 TwoMasterClocksRingGptpShowcase.tsnClock1.ethernet.fcsInserter flowIncomingPacketLengths:vector ETV
attr interpolationmode none
attr recordingmode vector
attr source "packetLength(demuxFlow(merge(packetPushedIn, packetPulledIn)))"
attr title "flow specific incoming packet lengths"
attr unit b
vector 23 TwoMasterClocksRingGptpShowcase.tsnClock1.ethernet.fcsInserter flowIncomingDataRate:vector ETV
attr interpolationmode linear
attr recordingmode vector
attr source "throughput(demuxFlow(merge(packetPushedIn, packetPulledIn)))"
attr title "flow specific incoming data rate"
attr unit bps
vector 24 TwoMasterClocksRingGptpShowcase.tsnClock1.ethernet.fcsInserter flowOutgoingPacketLengths:vector ETV
attr interpolationmode none
attr recordingmode vector
attr source "packetLength(demuxFlow(merge(packetPushedOut, packetPulledOut)))"
attr title "flow specific outgoing packet lengths"
attr unit b
vector 25 TwoMasterClocksRingGptpShowcase.tsnClock1.ethernet.fcsInserter flowOutgoingDataRate:vector ETV
attr interpolationmode linear
attr recordingmode vector
attr source "throughput(demuxFlow(merge(packetPushedOut, packetPulledOut)))"
attr title "flow specific outgoing data rate"
attr unit bps
vector 26 TwoMasterClocksRingGptpShowcase.tsnClock1.ethernet.macHeaderChecker incomingPacketLengths:vector ETV
attr interpolationmode none
attr recordingmode vector
attr source "packetLength(merge(packetPushedIn, packetPulledIn))"
attr title "incoming packet lengths"
attr unit b
vector 27 TwoMasterClocksRingGptpShowcase.tsnClock1.ethernet.macHeaderChecker incomingDataRate:vector ETV
attr interpolationmode linear
attr recordingmode vector
attr source "throughput(merge(packetPushedIn, packetPulledIn))"
attr title "incoming data rate"
attr unit bps
vector 28 TwoMasterClocksRingGptpShowcase.tsnClock1.ethernet.macHeaderChecker outgoingPacketLengths:vector ETV
attr interpolationmode none
attr recordingmode vector
attr source "packetLength(merge(packetPushedOut, packetPulledOut))"
attr title "outgoing packet lengths"
attr unit b
vector 29 TwoMasterClocksRingGptpShowcase.tsnClock1.ethernet.macHeaderChecker outgoingDataRate:vector ETV
attr interpolationmode linear
attr recordingmode vector
attr source "throughput(merge(packetPushedOut, packetPulledOut))"
attr title "outgoing data rate"
attr unit bps
vector 30 TwoMasterClocksRingGptpShowcase.tsnClock1.ethernet.macHeaderChecker droppedPacketLengths:vector ETV
attr interpolationmode none
attr recordingmode vector
attr source packetLength(packetDropped)
attr title "dropped packet lengths"
attr unit b
vector 31 TwoMasterClocksRingGptpShowcase.tsnClock1.ethernet.macHeaderChecker droppedDataRate:vector ETV
attr interpolationmode linear
attr recordingmode vector
attr source throughput(packetDropped)
attr title "dropped data rate"
attr unit bps
vector 32 TwoMasterClocksRingGptpShowcase.tsnClock1.ethernet.macHeaderChecker flowIncomingPacketLengths:vector ETV
attr interpolationmode none
attr recordingmode vector
attr source "packetLength(demuxFlow(merge(packetPushedIn, packetPulledIn)))"
attr title "flow specific incoming packet lengths"
attr unit b
vector 33 TwoMasterClocksRingGptpShowcase.tsnClock1.ethernet.macHeaderChecker flowIncomingDataRate:vector ETV
attr interpolationmode linear
attr recordingmode vector
attr source "throughput(demuxFlow(merge(packetPushedIn, packetPulledIn)))"
attr title "flow specific incoming data rate"
attr unit bps
vector 34 TwoMasterClocksRingGptpShowcase.tsnClock1.ethernet.macHeaderChecker flowOutgoingPacketLengths:vector ETV
attr interpolationmode none
attr recordingmode vector
attr source "packetLength(demuxFlow(merge(packetPushedOut, packetPulledOut)))"
attr title "flow specific outgoing packet lengths"
attr unit b
vector 35 TwoMasterClocksRingGptpShowcase.tsnClock1.ethernet.macHeaderChecker flowOutgoingDataRate:vector ETV
attr interpolationmode linear
attr recordingmode vector
attr source "throughput(demuxFlow(merge(packetPushedOut, packetPulledOut)))"
attr title "flow specific outgoing data rate"
attr unit bps
vector 36 TwoMasterClocksRingGptpShowcase.tsnClock1.ethernet.macHeaderChecker flowDroppedPacketLengths:vector ETV
attr interpolationmode none
attr recordingmode vector
attr source packetLength(demuxFlow(packetDropped))
attr title "flow specific dropped packet lengths"
attr unit b
vector 37 TwoMasterClocksRingGptpShowcase.tsnClock1.ethernet.macHeaderChecker flowDroppedDataRate:vector ETV
attr interpolationmode linear
attr recordingmode vector
attr source throughput(demuxFlow(packetDropped))
attr title "flow specific dropped data rate"
attr unit bps
vector 38 TwoMasterClocksRingGptpShowcase.tsnClock1.ethernet.fcsChecker incomingPacketLengths:vector ETV
attr interpolationmode none
attr recordingmode vector
attr source "packetLength(merge(packetPushedIn, packetPulledIn))"
attr title "incoming packet lengths"
attr unit b
vector 39 TwoMasterClocksRingGptpShowcase.tsnClock1.ethernet.fcsChecker incomingDataRate:vector ETV
attr interpolationmode linear
attr recordingmode vector
attr source "throughput(merge(packetPushedIn, packetPulledIn))"
attr title "incoming data rate"
attr unit bps
vector 40 TwoMasterClocksRingGptpShowcase.tsnClock1.ethernet.fcsChecker outgoingPacketLengths:vector ETV
attr interpolationmode none
attr recordingmode vector
attr source "packetLength(merge(packetPushedOut, packetPulledOut))"
attr title "outgoing packet lengths"
attr unit b
vector 41 TwoMasterClocksRingGptpShowcase.tsnClock1.ethernet.fcsChecker outgoingDataRate:vector ETV
attr interpolationmode linear
attr recordingmode vector
attr source "throughput(merge(packetPushedOut, packetPulledOut))"
attr title "outgoing data rate"
attr unit bps
vector 42 TwoMasterClocksRingGptpShowcase.tsnClock1.ethernet.fcsChecker droppedPacketLengths:vector ETV
attr interpolationmode none
attr recordingmode vector
attr source packetLength(packetDropped)
attr title "dropped packet lengths"
attr unit b
vector 43 TwoMasterClocksRingGptpShowcase.tsnClock1.ethernet.fcsChecker droppedDataRate:vector ETV
attr interpolationmode linear
attr recordingmode vector
attr source throughput(packetDropped)
attr title "dropped data rate"
attr unit bps
vector 44 TwoMasterClocksRingGptpShowcase.tsnClock1.ethernet.fcsChecker flowIncomingPacketLengths:vector ETV
attr interpolationmode none
attr recordingmode vector
attr source "packetLength(demuxFlow(merge(packetPushedIn, packetPulledIn)))"
attr title "flow specific incoming packet lengths"
attr unit b
vector 45 TwoMasterClocksRingGptpShowcase.tsnClock1.ethernet.fcsChecker flowIncomingDataRate:vector ETV
attr interpolationmode linear
attr recordingmode vector
attr source "throughput(demuxFlow(merge(packetPushedIn, packetPulledIn)))"
attr title "flow specific incoming data rate"
attr unit bps
vector 46 TwoMasterClocksRingGptpShowcase.tsnClock1.ethernet.fcsChecker flowOutgoingPacketLengths:vector ETV
attr interpolationmode none
attr recordingmode vector
attr source "packetLength(demuxFlow(merge(packetPushedOut, packetPulledOut)))"
attr title "flow specific outgoing packet lengths"
attr unit b
vector 47 TwoMasterClocksRingGptpShowcase.tsnClock1.ethernet.fcsChecker flowOutgoingDataRate:vector ETV
attr interpolationmode linear
attr recordingmode vector
attr source "throughput(demuxFlow(merge(packetPushedOut, packetPulledOut)))"
attr title "flow specific outgoing data rate"
attr unit bps
vector 48 TwoMasterClocksRingGptpShowcase.tsnClock1.ethernet.fcsChecker flowDroppedPacketLengths:vector ETV
attr interpolationmode none
attr recordingmode vector
attr source packetLength(demuxFlow(packetDropped))
attr title "flow specific dropped packet lengths"
attr unit b
vector 49 TwoMasterClocksRingGptpShowcase.tsnClock1.ethernet.fcsChecker flowDroppedDataRate:vector ETV
attr interpolationmode linear
attr recordingmode vector
attr source throughput(demuxFlow(packetDropped))
attr title "flow specific dropped data rate"
attr unit bps
vector 50 TwoMasterClocksRingGptpShowcase.tsnClock1.lo[0].lo rcvdPkFromHl:vector(packetBytes) ETV
attr interpolationmode none
attr recordingmode vector(packetBytes)
attr source packetReceivedFromUpper
attr title "packets received from higher layer, packetBytes"
vector 51 TwoMasterClocksRingGptpShowcase.tsnClock1.lo[0].lo passedUpPk:vector(packetBytes) ETV
attr interpolationmode none
attr recordingmode vector(packetBytes)
attr source packetSentToUpper
attr title "packets passed to higher layer, packetBytes"
vector 52 TwoMasterClocksRingGptpShowcase.tsnClock1.lo[0] packetDropInterfaceDown:vector(packetBytes) ETV
attr interpolationmode none
attr recordingmode vector(packetBytes)
attr source packetDropReasonIsInterfaceDown(packetDropped)
attr title "packet drops: interface down, packetBytes"
vector 53 TwoMasterClocksRingGptpShowcase.tsnClock1.lo[0] packetDropNoCarrier:vector(packetBytes) ETV
attr interpolationmode none
attr recordingmode vector(packetBytes)
attr source packetDropReasonIsNoCarrier(packetDropped)
attr title "packet drops: no carrier, packetBytes"
vector 54 TwoMasterClocksRingGptpShowcase.tsnClock1.eth[0].macLayer.queue queueLength:vector ETV
attr autoWarmupFilter false
attr interpolationmode sample-hold
attr recordingmode vector
attr source "warmup(atomic(constant0(packetPushEnded) + count(packetPushStarted) - count(packetPulled) - count(packetRemoved) - count(packetDropped)))"
attr title "queue length"
attr unit pk
vector 55 TwoMasterClocksRingGptpShowcase.tsnClock1.eth[0].macLayer.queue queueBitLength:vector ETV
attr autoWarmupFilter false
attr interpolationmode sample-hold
attr recordingmode vector
attr source "warmup(atomic(constant0(packetPushEnded) + sum(packetLength(packetPushStarted)) - sum(packetLength(packetPulled)) - sum(packetLength(packetRemoved)) - sum(packetLength(packetDropped))))"
attr title "queue bit length"
attr unit b
vector 56 TwoMasterClocksRingGptpShowcase.tsnClock1.eth[0].macLayer.queue queueingTime:vector ETV
attr interpolationmode none
attr recordingmode vector
attr source queueingTime(packetPulled)
attr title "queueing times"
attr unit s
vector 57 TwoMasterClocksRingGptpShowcase.tsnClock1.eth[0].macLayer.queue incomingPacketLengths:vector ETV
attr interpolationmode none
attr recordingmode vector
attr source packetLength(packetPushStarted)
attr title "incoming packet lengths"
attr unit b
vector 58 TwoMasterClocksRingGptpShowcase.tsnClock1.eth[0].macLayer.queue incomingDataRate:vector ETV
attr interpolationmode linear
attr recordingmode vector
attr source throughput(packetPushStarted)
attr title "incoming datarate"
attr unit bps
vector 59 TwoMasterClocksRingGptpShowcase.tsnClock1.eth[0].macLayer.queue outgoingPacketLengths:vector ETV
attr interpolationmode none
attr recordingmode vector
attr source packetLength(packetPulled)
attr title "outgoing packet lengths"
attr unit b
vector 60 TwoMasterClocksRingGptpShowcase.tsnClock1.eth[0].macLayer.queue outgoingDataRate:vector ETV
attr interpolationmode linear
attr recordingmode vector
attr source throughput(packetPulled)
attr title "outgoing datarate"
attr unit bps
vector 61 TwoMasterClocksRingGptpShowcase.tsnClock1.eth[0].macLayer.queue droppedPacketLengthsQueueOverflow:vector ETV
attr interpolationmode none
attr recordingmode vector
attr source packetLength(packetDropReasonIsQueueOverflow(packetDropped))
attr title "dropped packet lengths: queue overflow"
attr unit b
vector 62 TwoMasterClocksRingGptpShowcase.tsnClock1.eth[0].macLayer.queue flowQueueingTime:vector ETV
attr interpolationmode none
attr recordingmode vector
attr source queueingTime(demuxFlow(packetPulled))
attr title "flow queueing times"
attr unit s
vector 63 TwoMasterClocksRingGptpShowcase.tsnClock1.eth[0].macLayer.queue flowIncomingDataRate:vector ETV
attr interpolationmode linear
attr recordingmode vector
attr source throughput(flowPacketLength(demuxFlow(packetPushStarted)))
attr title "flow specific incoming data rate"
attr unit bps
vector 64 TwoMasterClocksRingGptpShowcase.tsnClock1.eth[0].macLayer.queue flowOutgoingDataRate:vector ETV
attr interpolationmode linear
attr recordingmode vector
attr source throughput(flowPacketLength(demuxFlow(packetPulled)))
attr title "flow specific outgoing data rate"
attr unit bps
vector 65 TwoMasterClocksRingGptpShowcase.tsnClock1.eth[0].macLayer.server incomingPacketLengths:vector ETV
attr interpolationmode none
attr recordingmode vector
attr source packetLength(packetPulled)
attr title "incoming packet lengths"
attr unit b
vector 66 TwoMasterClocksRingGptpShowcase.tsnClock1.eth[0].macLayer.server incomingDataRate:vector ETV
attr interpolationmode linear
attr recordingmode vector
attr source throughput(packetPulled)
attr title "incoming datarate"
attr unit bps
vector 67 TwoMasterClocksRingGptpShowcase.tsnClock1.eth[0].macLayer.server outgoingPacketLengths:vector ETV
attr interpolationmode none
attr recordingmode vector
attr source packetLength(packetPushed)
attr title "outgoing packet lengths"
attr unit b
vector 68 TwoMasterClocksRingGptpShowcase.tsnClock1.eth[0].macLayer.server outgoingDataRate:vector ETV
attr interpolationmode linear
attr recordingmode vector
attr source throughput(packetPushed)
attr title "outgoing datarate"
attr unit bps
vector 69 TwoMasterClocksRingGptpShowcase.tsnClock1.eth[0].macLayer.outboundEmitter incomingPacketLengths:vector ETV
attr interpolationmode none
attr recordingmode vector
attr source "packetLength(merge(packetPushedIn, packetPulledIn))"
attr title "incoming packet lengths"
attr unit b
vector 70 TwoMasterClocksRingGptpShowcase.tsnClock1.eth[0].macLayer.outboundEmitter incomingDataRate:vector ETV
attr interpolationmode linear
attr recordingmode vector
attr source "throughput(merge(packetPushedIn, packetPulledIn))"
attr title "incoming data rate"
attr unit bps
vector 71 TwoMasterClocksRingGptpShowcase.tsnClock1.eth[0].macLayer.outboundEmitter outgoingPacketLengths:vector ETV
attr interpolationmode none
attr recordingmode vector
attr source "packetLength(merge(packetPushedOut, packetPulledOut))"
attr title "outgoing packet lengths"
attr unit b
vector 72 TwoMasterClocksRingGptpShowcase.tsnClock1.eth[0].macLayer.outboundEmitter outgoingDataRate:vector ETV
attr interpolationmode linear
attr recordingmode vector
attr source "throughput(merge(packetPushedOut, packetPulledOut))"
attr title "outgoing data rate"
attr unit bps
vector 73 TwoMasterClocksRingGptpShowcase.tsnClock1.eth[0].macLayer.outboundEmitter flowIncomingPacketLengths:vector ETV
attr interpolationmode none
attr recordingmode vector
attr source "packetLength(demuxFlow(merge(packetPushedIn, packetPulledIn)))"
attr title "flow specific incoming packet lengths"
attr unit b
vector 74 TwoMasterClocksRingGptpShowcase.tsnClock1.eth[0].macLayer.outboundEmitter flowIncomingDataRate:vector ETV
attr interpolationmode linear
attr recordingmode vector
attr source "throughput(demuxFlow(merge(packetPushedIn, packetPulledIn)))"
attr title "flow specific incoming data rate"
attr unit bps
vector 75 TwoMasterClocksRingGptpShowcase.tsnClock1.eth[0].macLayer.outboundEmitter flowOutgoingPacketLengths:vector ETV
attr interpolationmode none
attr recordingmode vector
attr source "packetLength(demuxFlow(merge(packetPushedOut, packetPulledOut)))"
attr title "flow specific outgoing packet lengths"
attr unit b
vector 76 TwoMasterClocksRingGptpShowcase.tsnClock1.eth[0].macLayer.outboundEmitter flowOutgoingDataRate:vector ETV
attr interpolationmode linear
attr recordingmode vector
attr source "throughput(demuxFlow(merge(packetPushedOut, packetPulledOut)))"
attr title "flow specific outgoing data rate"
attr unit bps
vector 77 TwoMasterClocksRingGptpShowcase.tsnClock1.eth[0].macLayer.fcsChecker incomingPacketLengths:vector ETV
attr interpolationmode none
attr recordingmode vector
attr source "packetLength(merge(packetPushedIn, packetPulledIn))"
attr title "incoming packet lengths"
attr unit b
vector 78 TwoMasterClocksRingGptpShowcase.tsnClock1.eth[0].macLayer.fcsChecker incomingDataRate:vector ETV
attr interpolationmode linear
attr recordingmode vector
attr source "throughput(merge(packetPushedIn, packetPulledIn))"
attr title "incoming data rate"
attr unit bps
vector 79 TwoMasterClocksRingGptpShowcase.tsnClock1.eth[0].macLayer.fcsChecker outgoingPacketLengths:vector ETV
attr interpolationmode none
attr recordingmode vector
attr source "packetLength(merge(packetPushedOut, packetPulledOut))"
attr title "outgoing packet lengths"
attr unit b
vector 80 TwoMasterClocksRingGptpShowcase.tsnClock1.eth[0].macLayer.fcsChecker outgoingDataRate:vector ETV
attr interpolationmode linear
attr recordingmode vector
attr source "throughput(merge(packetPushedOut, packetPulledOut))"
attr title "outgoing data rate"
attr unit bps
vector 81 TwoMasterClocksRingGptpShowcase.tsnClock1.eth[0].macLayer.fcsChecker droppedPacketLengths:vector ETV
attr interpolationmode none
attr recordingmode vector
attr source packetLength(packetDropped)
attr title "dropped packet lengths"
attr unit b
vector 82 TwoMasterClocksRingGptpShowcase.tsnClock1.eth[0].macLayer.fcsChecker droppedDataRate:vector ETV
attr interpolationmode linear
attr recordingmode vector
attr source throughput(packetDropped)
attr title "dropped data rate"
attr unit bps
vector 83 TwoMasterClocksRingGptpShowcase.tsnClock1.eth[0].macLayer.fcsChecker flowIncomingPacketLengths:vector ETV
attr interpolationmode none
attr recordingmode vector
attr source "packetLength(demuxFlow(merge(packetPushedIn, packetPulledIn)))"
attr title "flow specific incoming packet lengths"
attr unit b
vector 84 TwoMasterClocksRingGptpShowcase.tsnClock1.eth[0].macLayer.fcsChecker flowIncomingDataRate:vector ETV
attr interpolationmode linear
attr recordingmode vector
attr source "throughput(demuxFlow(merge(packetPushedIn, packetPulledIn)))"
attr title "flow specific incoming data rate"
attr unit bps
vector 85 TwoMasterClocksRingGptpShowcase.tsnClock1.eth[0].macLayer.fcsChecker flowOutgoingPacketLengths:vector ETV
attr interpolationmode none
attr recordingmode vector
attr source "packetLength(demuxFlow(merge(packetPushedOut, packetPulledOut)))"
attr title "flow specific outgoing packet lengths"
attr unit b
vector 86 TwoMasterClocksRingGptpShowcase.tsnClock1.eth[0].macLayer.fcsChecker flowOutgoingDataRate:vector ETV
attr interpolationmode linear
attr recordingmode vector
attr source "throughput(demuxFlow(merge(packetPushedOut, packetPulledOut)))"
attr title "flow specific outgoing data rate"
attr unit bps
vector 87 TwoMasterClocksRingGptpShowcase.tsnClock1.eth[0].macLayer.fcsChecker flowDroppedPacketLengths:vector ETV
attr interpolationmode none
attr recordingmode vector
attr source packetLength(demuxFlow(packetDropped))
attr title "flow specific dropped packet lengths"
attr unit b
vector 88 TwoMasterClocksRingGptpShowcase.tsnClock1.eth[0].macLayer.fcsChecker flowDroppedDataRate:vector ETV
attr interpolationmode linear
attr recordingmode vector
attr source throughput(demuxFlow(packetDropped))
attr title "flow specific dropped data rate"
attr unit bps
vector 89 TwoMasterClocksRingGptpShowcase.tsnClock1.eth[0].macLayer.inboundEmitter incomingPacketLengths:vector ETV
attr interpolationmode none
attr recordingmode vector
attr source "packetLength(merge(packetPushedIn, packetPulledIn))"
attr title "incoming packet lengths"
attr unit b
vector 90 TwoMasterClocksRingGptpShowcase.tsnClock1.eth[0].macLayer.inboundEmitter incomingDataRate:vector ETV
attr interpolationmode linear
attr recordingmode vector
attr source "throughput(merge(packetPushedIn, packetPulledIn))"
attr title "incoming data rate"
attr unit bps
vector 91 TwoMasterClocksRingGptpShowcase.tsnClock1.eth[0].macLayer.inboundEmitter outgoingPacketLengths:vector ETV
attr interpolationmode none
attr recordingmode vector
attr source "packetLength(merge(packetPushedOut, packetPulledOut))"
attr title "outgoing packet lengths"
attr unit b
vector 92 TwoMasterClocksRingGptpShowcase.tsnClock1.eth[0].macLayer.inboundEmitter outgoingDataRate:vector ETV
attr interpolationmode linear
attr recordingmode vector
attr source "throughput(merge(packetPushedOut, packetPulledOut))"
attr title "outgoing data rate"
attr unit bps
vector 93 TwoMasterClocksRingGptpShowcase.tsnClock1.eth[0].macLayer.inboundEmitter flowIncomingPacketLengths:vector ETV
attr interpolationmode none
attr recordingmode vector
attr source "packetLength(demuxFlow(merge(packetPushedIn, packetPulledIn)))"
attr title "flow specific incoming packet lengths"
attr unit b
vector 94 TwoMasterClocksRingGptpShowcase.tsnClock1.eth[0].macLayer.inboundEmitter flowIncomingDataRate:vector ETV
attr interpolationmode linear
attr recordingmode vector
attr source "throughput(demuxFlow(merge(packetPushedIn, packetPulledIn)))"
attr title "flow specific incoming data rate"
attr unit bps
vector 95 TwoMasterClocksRingGptpShowcase.tsnClock1.eth[0].macLayer.inboundEmitter flowOutgoingPacketLengths:vector ETV
attr interpolationmode none
attr recordingmode vector
attr source "packetLength(demuxFlow(merge(packetPushedOut, packetPulledOut)))"
attr title "flow specific outgoing packet lengths"
attr unit b
vector 96 TwoMasterClocksRingGptpShowcase.tsnClock1.eth[0].macLayer.inboundEmitter flowOutgoingDataRate:vector ETV
attr interpolationmode linear
attr recordingmode vector
attr source "throughput(demuxFlow(merge(packetPushedOut, packetPulledOut)))"
attr title "flow specific outgoing data rate"
attr unit bps
vector 97 TwoMasterClocksRingGptpShowcase.tsnClock1.eth[0].phyLayer.phyHeaderInserter incomingPacketLengths:vector ETV
attr interpolationmode none
attr recordingmode vector
attr source "packetLength(merge(packetPushedIn, packetPulledIn))"
attr title "incoming packet lengths"
attr unit b
vector 98 TwoMasterClocksRingGptpShowcase.tsnClock1.eth[0].phyLayer.phyHeaderInserter incomingDataRate:vector ETV
attr interpolationmode linear
attr recordingmode vector
attr source "throughput(merge(packetPushedIn, packetPulledIn))"
attr title "incoming data rate"
attr unit bps
vector 99 TwoMasterClocksRingGptpShowcase.tsnClock1.eth[0].phyLayer.phyHeaderInserter outgoingPacketLengths:vector ETV
attr interpolationmode none
attr recordingmode vector
attr source "packetLength(merge(packetPushedOut, packetPulledOut))"
attr title "outgoing packet lengths"
attr unit b
vector 100 TwoMasterClocksRingGptpShowcase.tsnClock1.eth[0].phyLayer.phyHeaderInserter outgoingDataRate:vector ETV
attr interpolationmode linear
attr recordingmode vector
attr source "throughput(merge(packetPushedOut, packetPulledOut))"
attr title "outgoing data rate"
attr unit bps
vector 101 TwoMasterClocksRingGptpShowcase.tsnClock1.eth[0].phyLayer.phyHeaderInserter flowIncomingPacketLengths:vector ETV
attr interpolationmode none
attr recordingmode vector
attr source "packetLength(demuxFlow(merge(packetPushedIn, packetPulledIn)))"
attr title "flow specific incoming packet lengths"
attr unit b
vector 102 TwoMasterClocksRingGptpShowcase.tsnClock1.eth[0].phyLayer.phyHeaderInserter flowIncomingDataRate:vector ETV
attr interpolationmode linear
attr recordingmode vector
attr source "throughput(demuxFlow(merge(packetPushedIn, packetPulledIn)))"
attr title "flow specific incoming data rate"
attr unit bps
vector 103 TwoMasterClocksRingGptpShowcase.tsnClock1.eth[0].phyLayer.phyHeaderInserter flowOutgoingPacketLengths:vector ETV
attr interpolationmode none
attr recordingmode vector
attr source "packetLength(demuxFlow(merge(packetPushedOut, packetPulledOut)))"
attr title "flow specific outgoing packet lengths"
attr unit b
vector 104 TwoMasterClocksRingGptpShowcase.tsnClock1.eth[0].phyLayer.phyHeaderInserter flowOutgoingDataRate:vector ETV
attr interpolationmode linear
attr recordingmode vector
attr source "throughput(demuxFlow(merge(packetPushedOut, packetPulledOut)))"
attr title "flow specific outgoing data rate"
attr unit bps
vector 105 TwoMasterClocksRingGptpShowcase.tsnClock1.eth[0].phyLayer.interFrameGapInserter interpacketGap:vector ETV
attr interpolationmode sample-hold
attr recordingmode vector
attr source "count(interpacketGapStarted) - count(interpacketGapEnded)"
attr title "interpacket gap state"
attr type int
vector 106 TwoMasterClocksRingGptpShowcase.tsnClock1.eth[0].phyLayer.outboundEmitter incomingPacketLengths:vector ETV
attr interpolationmode none
attr recordingmode vector
attr source "packetLength(merge(packetPushedIn, packetPulledIn))"
attr title "incoming packet lengths"
attr unit b
vector 107 TwoMasterClocksRingGptpShowcase.tsnClock1.eth[0].phyLayer.outboundEmitter incomingDataRate:vector ETV
attr interpolationmode linear
attr recordingmode vector
attr source "throughput(merge(packetPushedIn, packetPulledIn))"
attr title "incoming data rate"
attr unit bps
vector 108 TwoMasterClocksRingGptpShowcase.tsnClock1.eth[0].phyLayer.outboundEmitter outgoingPacketLengths:vector ETV
attr interpolationmode none
attr recordingmode vector
attr source "packetLength(merge(packetPushedOut, packetPulledOut))"
attr title "outgoing packet lengths"
attr unit b
vector 109 TwoMasterClocksRingGptpShowcase.tsnClock1.eth[0].phyLayer.outboundEmitter outgoingDataRate:vector ETV
attr interpolationmode linear
attr recordingmode vector
attr source "throughput(merge(packetPushedOut, packetPulledOut))"
attr title "outgoing data rate"
attr unit bps
vector 110 TwoMasterClocksRingGptpShowcase.tsnClock1.eth[0].phyLayer.outboundEmitter flowIncomingPacketLengths:vector ETV
attr interpolationmode none
attr recordingmode vector
attr source "packetLength(demuxFlow(merge(packetPushedIn, packetPulledIn)))"
attr title "flow specific incoming packet lengths"
attr unit b
vector 111 TwoMasterClocksRingGptpShowcase.tsnClock1.eth[0].phyLayer.outboundEmitter flowIncomingDataRate:vector ETV
attr interpolationmode linear
attr recordingmode vector
attr source "throughput(demuxFlow(merge(packetPushedIn, packetPulledIn)))"
attr title "flow specific incoming data rate"
attr unit bps
vector 112 TwoMasterClocksRingGptpShowcase.tsnClock1.eth[0].phyLayer.outboundEmitter flowOutgoingPacketLengths:vector ETV
attr interpolationmode none
attr recordingmode vector
attr source "packetLength(demuxFlow(merge(packetPushedOut, packetPulledOut)))"
attr title "flow specific outgoing packet lengths"
attr unit b
vector 113 TwoMasterClocksRingGptpShowcase.tsnClock1.eth[0].phyLayer.outboundEmitter flowOutgoingDataRate:vector ETV
attr interpolationmode linear
attr recordingmode vector
attr source "throughput(demuxFlow(merge(packetPushedOut, packetPulledOut)))"
attr title "flow specific outgoing data rate"
attr unit bps
vector 114 TwoMasterClocksRingGptpShowcase.tsnClock1.eth[0].phyLayer.transmitter transmitting:vector ETV
attr interpolationmode sample-hold
attr recordingmode vector
attr source "count(transmissionStarted) - count(transmissionEnded)"
attr title "transmitting state"
attr type int
vector 115 TwoMasterClocksRingGptpShowcase.tsnClock1.eth[0].phyLayer.transmitter throughput:vector ETV
attr interpolationmode linear
attr recordingmode vector
attr source throughput(transmissionEnded)
attr title throughput
attr unit bps
vector 116 TwoMasterClocksRingGptpShowcase.tsnClock1.eth[0].phyLayer.transmitter utilization:vector ETV
attr interpolationmode linear
attr recordingmode vector
attr source "100 * utilization(count(transmissionStarted) - count(transmissionEnded))"
attr title utilization
attr unit %
vector 117 TwoMasterClocksRingGptpShowcase.tsnClock1.eth[0].phyLayer.transmitter transmissionTime:vector ETV
attr interpolationmode none
attr recordingmode vector
attr source packetDuration(transmissionEnded)
attr title "transmission time"
attr unit s
vector 118 TwoMasterClocksRingGptpShowcase.tsnClock1.eth[0].phyLayer.transmitter flowTransmissionTime:vector ETV
attr interpolationmode none
attr recordingmode vector
attr source packetDuration(demuxFlow(transmissionEnded))
attr title "flow transmission time"
attr unit s
vector 119 TwoMasterClocksRingGptpShowcase.tsnClock1.eth[0].phyLayer.phyHeaderChecker incomingPacketLengths:vector ETV
attr interpolationmode none
attr recordingmode vector
attr source "packetLength(merge(packetPushedIn, packetPulledIn))"
attr title "incoming packet lengths"
attr unit b
vector 120 TwoMasterClocksRingGptpShowcase.tsnClock1.eth[0].phyLayer.phyHeaderChecker incomingDataRate:vector ETV
attr interpolationmode linear
attr recordingmode vector
attr source "throughput(merge(packetPushedIn, packetPulledIn))"
attr title "incoming data rate"
attr unit bps
vector 121 TwoMasterClocksRingGptpShowcase.tsnClock1.eth[0].phyLayer.phyHeaderChecker outgoingPacketLengths:vector ETV
attr interpolationmode none
attr recordingmode vector
attr source "packetLength(merge(packetPushedOut, packetPulledOut))"
attr title "outgoing packet lengths"
attr unit b
vector 122 TwoMasterClocksRingGptpShowcase.tsnClock1.eth[0].phyLayer.phyHeaderChecker outgoingDataRate:vector ETV
attr interpolationmode linear
attr recordingmode vector
attr source "throughput(merge(packetPushedOut, packetPulledOut))"
attr title "outgoing data rate"
attr unit bps
vector 123 TwoMasterClocksRingGptpShowcase.tsnClock1.eth[0].phyLayer.phyHeaderChecker droppedPacketLengths:vector ETV
attr interpolationmode none
attr recordingmode vector
attr source packetLength(packetDropped)
attr title "dropped packet lengths"
attr unit b
vector 124 TwoMasterClocksRingGptpShowcase.tsnClock1.eth[0].phyLayer.phyHeaderChecker droppedDataRate:vector ETV
attr interpolationmode linear
attr recordingmode vector
attr source throughput(packetDropped)
attr title "dropped data rate"
attr unit bps
vector 125 TwoMasterClocksRingGptpShowcase.tsnClock1.eth[0].phyLayer.phyHeaderChecker flowIncomingPacketLengths:vector ETV
attr interpolationmode none
attr recordingmode vector
attr source "packetLength(demuxFlow(merge(packetPushedIn, packetPulledIn)))"
attr title "flow specific incoming packet lengths"
attr unit b
vector 126 TwoMasterClocksRingGptpShowcase.tsnClock1.eth[0].phyLayer.phyHeaderChecker flowIncomingDataRate:vector ETV
attr interpolationmode linear
attr recordingmode vector
attr source "throughput(demuxFlow(merge(packetPushedIn, packetPulledIn)))"
attr title "flow specific incoming data rate"
attr unit bps
vector 127 TwoMasterClocksRingGptpShowcase.tsnClock1.eth[0].phyLayer.phyHeaderChecker flowOutgoingPacketLengths:vector ETV
attr interpolationmode none
attr recordingmode vector
attr source "packetLength(demuxFlow(merge(packetPushedOut, packetPulledOut)))"
attr title "flow specific outgoing packet lengths"
attr unit b
vector 128 TwoMasterClocksRingGptpShowcase.tsnClock1.eth[0].phyLayer.phyHeaderChecker flowOutgoingDataRate:vector ETV
attr interpolationmode linear
attr recordingmode vector
attr source "throughput(demuxFlow(merge(packetPushedOut, packetPulledOut)))"
attr title "flow specific outgoing data rate"
attr unit bps
vector 129 TwoMasterClocksRingGptpShowcase.tsnClock1.eth[0].phyLayer.phyHeaderChecker flowDroppedPacketLengths:vector ETV
attr interpolationmode none
attr recordingmode vector
attr source packetLength(demuxFlow(packetDropped))
attr title "flow specific dropped packet lengths"
attr unit b
vector 130 TwoMasterClocksRingGptpShowcase.tsnClock1.eth[0].phyLayer.phyHeaderChecker flowDroppedDataRate:vector ETV
attr interpolationmode linear
attr recordingmode vector
attr source throughput(demuxFlow(packetDropped))
attr title "flow specific dropped data rate"
attr unit bps
vector 131 TwoMasterClocksRingGptpShowcase.tsnClock1.eth[0].phyLayer.inboundEmitter incomingPacketLengths:vector ETV
attr interpolationmode none
attr recordingmode vector
attr source "packetLength(merge(packetPushedIn, packetPulledIn))"
attr title "incoming packet lengths"
attr unit b
vector 132 TwoMasterClocksRingGptpShowcase.tsnClock1.eth[0].phyLayer.inboundEmitter incomingDataRate:vector ETV
attr interpolationmode linear
attr recordingmode vector
attr source "throughput(merge(packetPushedIn, packetPulledIn))"
attr title "incoming data rate"
attr unit bps
vector 133 TwoMasterClocksRingGptpShowcase.tsnClock1.eth[0].phyLayer.inboundEmitter outgoingPacketLengths:vector ETV
attr interpolationmode none
attr recordingmode vector
attr source "packetLength(merge(packetPushedOut, packetPulledOut))"
attr title "outgoing packet lengths"
attr unit b
vector 134 TwoMasterClocksRingGptpShowcase.tsnClock1.eth[0].phyLayer.inboundEmitter outgoingDataRate:vector ETV
attr interpolationmode linear
attr recordingmode vector
attr source "throughput(merge(packetPushedOut, packetPulledOut))"
attr title "outgoing data rate"
attr unit bps
vector 135 TwoMasterClocksRingGptpShowcase.tsnClock1.eth[0].phyLayer.inboundEmitter flowIncomingPacketLengths:vector ETV
attr interpolationmode none
attr recordingmode vector
attr source "packetLength(demuxFlow(merge(packetPushedIn, packetPulledIn)))"
attr title "flow specific incoming packet lengths"
attr unit b
vector 136 TwoMasterClocksRingGptpShowcase.tsnClock1.eth[0].phyLayer.inboundEmitter flowIncomingDataRate:vector ETV
attr interpolationmode linear
attr recordingmode vector
attr source "throughput(demuxFlow(merge(packetPushedIn, packetPulledIn)))"
attr title "flow specific incoming data rate"
attr unit bps
vector 137 TwoMasterClocksRingGptpShowcase.tsnClock1.eth[0].phyLayer.inboundEmitter flowOutgoingPacketLengths:vector ETV
attr interpolationmode none
attr recordingmode vector
attr source "packetLength(demuxFlow(merge(packetPushedOut, packetPulledOut)))"
attr title "flow specific outgoing packet lengths"
attr unit b
vector 138 TwoMasterClocksRingGptpShowcase.tsnClock1.eth[0].phyLayer.inboundEmitter flowOutgoingDataRate:vector ETV
attr interpolationmode linear
attr recordingmode vector
attr source "throughput(demuxFlow(merge(packetPushedOut, packetPulledOut)))"
attr title "flow specific outgoing data rate"
attr unit bps
vector 139 TwoMasterClocksRingGptpShowcase.tsnClock1.eth[0].phyLayer.receiver throughput:vector ETV
attr interpolationmode linear
attr recordingmode vector
attr source throughput(receptionEnded)
attr title throughput
attr unit bps
vector 140 TwoMasterClocksRingGptpShowcase.tsnClock1.eth[0].phyLayer.receiver receptionTime:vector ETV
attr interpolationmode none
attr recordingmode vector
attr source packetDuration(receptionEnded)
attr title "reception time"
attr unit s
vector 141 TwoMasterClocksRingGptpShowcase.tsnClock1.eth[0].phyLayer.receiver flowReceptionTime:vector ETV
attr interpolationmode none
attr recordingmode vector
attr source packetDuration(demuxFlow(receptionEnded))
attr title "flow reception time"
attr unit s
vector 142 TwoMasterClocksRingGptpShowcase.tsnClock1.eth[0] packetDropInterfaceDown:vector(packetBytes) ETV
attr interpolationmode none
attr recordingmode vector(packetBytes)
attr source packetDropReasonIsInterfaceDown(packetDropped)
attr title "packet drops: interface down, packetBytes"
vector 143 TwoMasterClocksRingGptpShowcase.tsnClock1.eth[0] packetDropNoCarrier:vector(packetBytes) ETV
attr interpolationmode none
attr recordingmode vector(packetBytes)
attr source packetDropReasonIsNoCarrier(packetDropped)
attr title "packet drops: no carrier, packetBytes"
vector 144 TwoMasterClocksRingGptpShowcase.tsnClock1.ipv4.ip packetDropAddressResolutionFailed:vector(packetBytes) ETV
attr interpolationmode none
attr recordingmode vector(packetBytes)
attr source packetDropReasonIsAddressResolutionFailed(packetDropped)
attr title "packet drop: address resolution failed, packetBytes"
vector 145 TwoMasterClocksRingGptpShowcase.tsnClock1.ipv4.ip packetDropHopLimitReached:vector(packetBytes) ETV
attr interpolationmode none
attr recordingmode vector(packetBytes)
attr source packetDropReasonIsHopLimitReached(packetDropped)
attr title "packet drop: hop limit reached, packetBytes"
vector 146 TwoMasterClocksRingGptpShowcase.tsnClock1.ipv4.ip packetDropForwardingDisabled:vector(packetBytes) ETV
attr interpolationmode none
attr recordingmode vector(packetBytes)
attr source packetDropReasonIsForwardingDisabled(packetDropped)
attr title "packet drop: forwarding disabled, packetBytes"
vector 147 TwoMasterClocksRingGptpShowcase.tsnClock1.ipv4.ip packetDropNoInterfaceFound:vector(packetBytes) ETV
attr interpolationmode none
attr recordingmode vector(packetBytes)
attr source packetDropReasonIsNoInterfaceFound(packetDropped)
attr title "packet drop: no interface found, packetBytes"
vector 148 TwoMasterClocksRingGptpShowcase.tsnClock1.ipv4.ip packetDropNoRouteFound:vector(packetBytes) ETV
attr interpolationmode none
attr recordingmode vector(packetBytes)
attr source packetDropReasonIsNoRouteFound(packetDropped)
attr title "packet drop: no route found, packetBytes"
vector 149 TwoMasterClocksRingGptpShowcase.tsnClock1.ipv4.ip packetDropUndefined:vector(packetBytes) ETV
attr interpolationmode none
attr recordingmode vector(packetBytes)
attr source packetDropReasonIsUndefined(packetDropped)
attr title "packet drop: undefined, packetBytes"
vector 150 TwoMasterClocksRingGptpShowcase.tsnClock1.udp packetSent:vector(packetBytes) ETV
attr interpolationmode none
attr recordingmode vector(packetBytes)
attr source packetSent
attr title "packets sent, packetBytes"
vector 151 TwoMasterClocksRingGptpShowcase.tsnClock1.udp packetReceived:vector(packetBytes) ETV
attr interpolationmode none
attr recordingmode vector(packetBytes)
attr source packetReceived
attr title "packets received, packetBytes"
vector 152 TwoMasterClocksRingGptpShowcase.tsnClock1.udp passedUpPk:vector(count) ETV
attr interpolationmode none
attr recordingmode vector(count)
attr source packetSentToUpper
attr title "packets passed up, count"
vector 153 TwoMasterClocksRingGptpShowcase.tsnClock1.udp droppedPkWrongPort:vector(count) ETV
attr interpolationmode none
attr recordingmode vector(count)
attr source packetDropReasonIsNoPortFound(packetDropped)
attr title "packets dropped (wrong port), count"
vector 154 TwoMasterClocksRingGptpShowcase.tsnClock1.udp droppedPkBadChecksum:vector(count) ETV
attr interpolationmode none
attr recordingmode vector(count)
attr source packetDropReasonIsIncorrectlyReceived(packetDropped)
attr title "packets dropped (checksum error), count"
vector 155 TwoMasterClocksRingGptpShowcase.tsnClock1.gptp.domain[0] localTime:vector ETV
attr interpolationmode linear
attr recordingmode vector
vector 156 TwoMasterClocksRingGptpShowcase.tsnClock1.gptp.domain[0] timeDifference:vector ETV
attr interpolationmode linear
attr recordingmode vector
vector 157 TwoMasterClocksRingGptpShowcase.tsnClock1.gptp.domain[0] rateRatio:vector ETV
attr interpolationmode sample-hold
attr recordingmode vector
vector 158 TwoMasterClocksRingGptpShowcase.tsnClock1.gptp.domain[0] peerDelay:vector ETV
attr interpolationmode sample-hold
attr recordingmode vector
vector 159 TwoMasterClocksRingGptpShowcase.tsnClock1.gptp.domain[0] packetDropNotAddressedToUs:vector(packetBytes) ETV
attr interpolationmode none
attr recordingmode vector(packetBytes)
attr source packetDropReasonIsNotAddressedToUs(packetDropped)
attr title "packet drop: not addressed to us, packetBytes"
vector 160 TwoMasterClocksRingGptpShowcase.tsnClock1.gptp.domain[1] localTime:vector ETV
attr interpolationmode linear
attr recordingmode vector
vector 161 TwoMasterClocksRingGptpShowcase.tsnClock1.gptp.domain[1] timeDifference:vector ETV
attr interpolationmode linear
attr recordingmode vector
vector 162 TwoMasterClocksRingGptpShowcase.tsnClock1.gptp.domain[1] rateRatio:vector ETV
attr interpolationmode sample-hold
attr recordingmode vector
vector 163 TwoMasterClocksRingGptpShowcase.tsnClock1.gptp.domain[1] peerDelay:vector ETV
attr interpolationmode sample-hold
attr recordingmode vector
vector 164 TwoMasterClocksRingGptpShowcase.tsnClock1.gptp.domain[1] packetDropNotAddressedToUs:vector(packetBytes) ETV
attr interpolationmode none
attr recordingmode vector(packetBytes)
attr source packetDropReasonIsNotAddressedToUs(packetDropped)
attr title "packet drop: not addressed to us, packetBytes"
vector 165 TwoMasterClocksRingGptpShowcase.tsnClock1.gptp.multiplexer packetLengths:vector ETV
attr interpolationmode none
attr recordingmode vector
attr source "packetLength(merge(packetPushed, packetPulled))"
attr title "packet lengths"
attr unit b
vector 166 TwoMasterClocksRingGptpShowcase.tsnClock1.gptp.multiplexer dataRate:vector ETV
attr interpolationmode linear
attr recordingmode vector
attr source "throughput(merge(packetPushed, packetPulled))"
attr title "data rate"
attr unit bps
vector 167 TwoMasterClocksRingGptpShowcase.tsnClock1.gptp.classifier packetLengths:vector ETV
attr interpolationmode none
attr recordingmode vector
attr source packetLength(packetPushed)
attr title "packet lengths"
attr unit b
vector 168 TwoMasterClocksRingGptpShowcase.tsnClock1.gptp.classifier dataRate:vector ETV
attr interpolationmode linear
attr recordingmode vector
attr source throughput(packetPushed)
attr title "data rate"
attr unit bps
vector 169 TwoMasterClocksRingGptpShowcase.tsnClock2.clock.clock[0].oscillator driftRateChanged:vector ETV
attr interpolationmode sample-hold
attr recordingmode vector
attr title "Oscillator drift rate"
attr unit ppm
vector 170 TwoMasterClocksRingGptpShowcase.tsnClock2.clock.clock[0] timeChanged:vector ETV
attr interpolationmode linear
attr recordingmode vector
attr title "Clock time"
vector 171 TwoMasterClocksRingGptpShowcase.tsnClock2.clock.clock[1].oscillator driftRateChanged:vector ETV
attr interpolationmode sample-hold
attr recordingmode vector
attr title "Oscillator drift rate"
attr unit ppm
vector 172 TwoMasterClocksRingGptpShowcase.tsnClock2.clock.clock[1] timeChanged:vector ETV
attr interpolationmode linear
attr recordingmode vector
attr title "Clock time"
vector 173 TwoMasterClocksRingGptpShowcase.tsnClock2.clock timeChanged:vector ETV
attr interpolationmode linear
attr recordingmode vector
attr source localSignal(timeChanged)
attr title "Clock time"
vector 174 TwoMasterClocksRingGptpShowcase.tsnClock2.ethernet.macHeaderInserter incomingPacketLengths:vector ETV
attr interpolationmode none
attr recordingmode vector
attr source "packetLength(merge(packetPushedIn, packetPulledIn))"
attr title "incoming packet lengths"
attr unit b
vector 175 TwoMasterClocksRingGptpShowcase.tsnClock2.ethernet.macHeaderInserter incomingDataRate:vector ETV
attr interpolationmode linear
attr recordingmode vector
attr source "throughput(merge(packetPushedIn, packetPulledIn))"
attr title "incoming data rate"
attr unit bps
vector 176 TwoMasterClocksRingGptpShowcase.tsnClock2.ethernet.macHeaderInserter outgoingPacketLengths:vector ETV
attr interpolationmode none
attr recordingmode vector
attr source "packetLength(merge(packetPushedOut, packetPulledOut))"
attr title "outgoing packet lengths"
attr unit b
vector 177 TwoMasterClocksRingGptpShowcase.tsnClock2.ethernet.macHeaderInserter outgoingDataRate:vector ETV
attr interpolationmode linear
attr recordingmode vector
attr source "throughput(merge(packetPushedOut, packetPulledOut))"
attr title "outgoing data rate"
attr unit bps
vector 178 TwoMasterClocksRingGptpShowcase.tsnClock2.ethernet.macHeaderInserter flowIncomingPacketLengths:vector ETV
attr interpolationmode none
attr recordingmode vector
attr source "packetLength(demuxFlow(merge(packetPushedIn, packetPulledIn)))"
attr title "flow specific incoming packet lengths"
attr unit b
vector 179 TwoMasterClocksRingGptpShowcase.tsnClock2.ethernet.macHeaderInserter flowIncomingDataRate:vector ETV
attr interpolationmode linear
attr recordingmode vector
attr source "throughput(demuxFlow(merge(packetPushedIn, packetPulledIn)))"
attr title "flow specific incoming data rate"
attr unit bps
vector 180 TwoMasterClocksRingGptpShowcase.tsnClock2.ethernet.macHeaderInserter flowOutgoingPacketLengths:vector ETV
attr interpolationmode none
attr recordingmode vector
attr source "packetLength(demuxFlow(merge(packetPushedOut, packetPulledOut)))"
attr title "flow specific outgoing packet lengths"
attr unit b
vector 181 TwoMasterClocksRingGptpShowcase.tsnClock2.ethernet.macHeaderInserter flowOutgoingDataRate:vector ETV
attr interpolationmode linear
attr recordingmode vector
attr source "throughput(demuxFlow(merge(packetPushedOut, packetPulledOut)))"
attr title "flow specific outgoing data rate"
attr unit bps
vector 182 TwoMasterClocksRingGptpShowcase.tsnClock2.ethernet.paddingInserter incomingPacketLengths:vector ETV
attr interpolationmode none
attr recordingmode vector
attr source "packetLength(merge(packetPushedIn, packetPulledIn))"
attr title "incoming packet lengths"
attr unit b
vector 183 TwoMasterClocksRingGptpShowcase.tsnClock2.ethernet.paddingInserter incomingDataRate:vector ETV
attr interpolationmode linear
attr recordingmode vector
attr source "throughput(merge(packetPushedIn, packetPulledIn))"
attr title "incoming data rate"
attr unit bps
vector 184 TwoMasterClocksRingGptpShowcase.tsnClock2.ethernet.paddingInserter outgoingPacketLengths:vector ETV
attr interpolationmode none
attr recordingmode vector
attr source "packetLength(merge(packetPushedOut, packetPulledOut))"
attr title "outgoing packet lengths"
attr unit b
vector 185 TwoMasterClocksRingGptpShowcase.tsnClock2.ethernet.paddingInserter outgoingDataRate:vector ETV
attr interpolationmode linear
attr recordingmode vector
attr source "throughput(merge(packetPushedOut, packetPulledOut))"
attr title "outgoing data rate"
attr unit bps
vector 186 TwoMasterClocksRingGptpShowcase.tsnClock2.ethernet.paddingInserter flowIncomingPacketLengths:vector ETV
attr interpolationmode none
attr recordingmode vector
attr source "packetLength(demuxFlow(merge(packetPushedIn, packetPulledIn)))"
attr title "flow specific incoming packet lengths"
attr unit b
vector 187 TwoMasterClocksRingGptpShowcase.tsnClock2.ethernet.paddingInserter flowIncomingDataRate:vector ETV
attr interpolationmode linear
attr recordingmode vector
attr source "throughput(demuxFlow(merge(packetPushedIn, packetPulledIn)))"
attr title "flow specific incoming data rate"
attr unit bps
vector 188 TwoMasterClocksRingGptpShowcase.tsnClock2.ethernet.paddingInserter flowOutgoingPacketLengths:vector ETV
attr interpolationmode none
attr recordingmode vector
attr source "packetLength(demuxFlow(merge(packetPushedOut, packetPulledOut)))"
attr title "flow specific outgoing packet lengths"
attr unit b
vector 189 TwoMasterClocksRingGptpShowcase.tsnClock2.ethernet.paddingInserter flowOutgoingDataRate:vector ETV
attr interpolationmode linear
attr recordingmode vector
attr source "throughput(demuxFlow(merge(packetPushedOut, packetPulledOut)))"
attr title "flow specific outgoing data rate"
attr unit bps
vector 190 TwoMasterClocksRingGptpShowcase.tsnClock2.ethernet.fcsInserter incomingPacketLengths:vector ETV
attr interpolationmode none
attr recordingmode vector
attr source "packetLength(merge(packetPushedIn, packetPulledIn))"
attr title "incoming packet lengths"
attr unit b
vector 191 TwoMasterClocksRingGptpShowcase.tsnClock2.ethernet.fcsInserter incomingDataRate:vector ETV
attr interpolationmode linear
attr recordingmode vector
attr source "throughput(merge(packetPushedIn, packetPulledIn))"
attr title "incoming data rate"
attr unit bps
vector 192 TwoMasterClocksRingGptpShowcase.tsnClock2.ethernet.fcsInserter outgoingPacketLengths:vector ETV
attr interpolationmode none
attr recordingmode vector
attr source "packetLength(merge(packetPushedOut, packetPulledOut))"
attr title "outgoing packet lengths"
attr unit b
vector 193 TwoMasterClocksRingGptpShowcase.tsnClock2.ethernet.fcsInserter outgoingDataRate:vector ETV
attr interpolationmode linear
attr recordingmode vector
attr source "throughput(merge(packetPushedOut, packetPulledOut))"
attr title "outgoing data rate"
attr unit bps
vector 194 TwoMasterClocksRingGptpShowcase.tsnClock2.ethernet.fcsInserter flowIncomingPacketLengths:vector ETV
attr interpolationmode none
attr recordingmode vector
attr source "packetLength(demuxFlow(merge(packetPushedIn, packetPulledIn)))"
attr title "flow specific incoming packet lengths"
attr unit b
vector 195 TwoMasterClocksRingGptpShowcase.tsnClock2.ethernet.fcsInserter flowIncomingDataRate:vector ETV
attr interpolationmode linear
attr recordingmode vector
attr source "throughput(demuxFlow(merge(packetPushedIn, packetPulledIn)))"
attr title "flow specific incoming data rate"
attr unit bps
vector 196 TwoMasterClocksRingGptpShowcase.tsnClock2.ethernet.fcsInserter flowOutgoingPacketLengths:vector ETV
attr interpolationmode none
attr recordingmode vector
attr source "packetLength(demuxFlow(merge(packetPushedOut, packetPulledOut)))"
attr title "flow specific outgoing packet lengths"
attr unit b
vector 197 TwoMasterClocksRingGptpShowcase.tsnClock2.ethernet.fcsInserter flowOutgoingDataRate:vector ETV
attr interpolationmode linear
attr recordingmode vector
attr source "throughput(demuxFlow(merge(packetPushedOut, packetPulledOut)))"
attr title "flow specific outgoing data rate"
attr unit bps
vector 198 TwoMasterClocksRingGptpShowcase.tsnClock2.ethernet.macHeaderChecker incomingPacketLengths:vector ETV
attr interpolationmode none
attr recordingmode vector
attr source "packetLength(merge(packetPushedIn, packetPulledIn))"
attr title "incoming packet lengths"
attr unit b
vector 199 TwoMasterClocksRingGptpShowcase.tsnClock2.ethernet.macHeaderChecker incomingDataRate:vector ETV
attr interpolationmode linear
attr recordingmode vector
attr source "throughput(merge(packetPushedIn, packetPulledIn))"
attr title "incoming data rate"
attr unit bps
vector 200 TwoMasterClocksRingGptpShowcase.tsnClock2.ethernet.macHeaderChecker outgoingPacketLengths:vector ETV
attr interpolationmode none
attr recordingmode vector
attr source "packetLength(merge(packetPushedOut, packetPulledOut))"
attr title "outgoing packet lengths"
attr unit b
vector 201 TwoMasterClocksRingGptpShowcase.tsnClock2.ethernet.macHeaderChecker outgoingDataRate:vector ETV
attr interpolationmode linear
attr recordingmode vector
attr source "throughput(merge(packetPushedOut, packetPulledOut))"
attr title "outgoing data rate"
attr unit bps
vector 202 TwoMasterClocksRingGptpShowcase.tsnClock2.ethernet.macHeaderChecker droppedPacketLengths:vector ETV
attr interpolationmode none
attr recordingmode vector
attr source packetLength(packetDropped)
attr title "dropped packet lengths"
attr unit b
vector 203 TwoMasterClocksRingGptpShowcase.tsnClock2.ethernet.macHeaderChecker droppedDataRate:vector ETV
attr interpolationmode linear
attr recordingmode vector
attr source throughput(packetDropped)
attr title "dropped data rate"
attr unit bps
vector 204 TwoMasterClocksRingGptpShowcase.tsnClock2.ethernet.macHeaderChecker flowIncomingPacketLengths:vector ETV
attr interpolationmode none
attr recordingmode vector
attr source "packetLength(demuxFlow(merge(packetPushedIn, packetPulledIn)))"
attr title "flow specific incoming packet lengths"
attr unit b
vector 205 TwoMasterClocksRingGptpShowcase.tsnClock2.ethernet.macHeaderChecker flowIncomingDataRate:vector ETV
attr interpolationmode linear
attr recordingmode vector
attr source "throughput(demuxFlow(merge(packetPushedIn, packetPulledIn)))"
attr title "flow specific incoming data rate"
attr unit bps
vector 206 TwoMasterClocksRingGptpShowcase.tsnClock2.ethernet.macHeaderChecker flowOutgoingPacketLengths:vector ETV
attr interpolationmode none
attr recordingmode vector
attr source "packetLength(demuxFlow(merge(packetPushedOut, packetPulledOut)))"
attr title "flow specific outgoing packet lengths"
attr unit b
vector 207 TwoMasterClocksRingGptpShowcase.tsnClock2.ethernet.macHeaderChecker flowOutgoingDataRate:vector ETV
attr interpolationmode linear
attr recordingmode vector
attr source "throughput(demuxFlow(merge(packetPushedOut, packetPulledOut)))"
attr title "flow specific outgoing data rate"
attr unit bps
vector 208 TwoMasterClocksRingGptpShowcase.tsnClock2.ethernet.macHeaderChecker flowDroppedPacketLengths:vector ETV
attr interpolationmode none
attr recordingmode vector
attr source packetLength(demuxFlow(packetDropped))
attr title "flow specific dropped packet lengths"
attr unit b
vector 209 TwoMasterClocksRingGptpShowcase.tsnClock2.ethernet.macHeaderChecker flowDroppedDataRate:vector ETV
attr interpolationmode linear
attr recordingmode vector
attr source throughput(demuxFlow(packetDropped))
attr title "flow specific dropped data rate"
attr unit bps
vector 210 TwoMasterClocksRingGptpShowcase.tsnClock2.ethernet.fcsChecker incomingPacketLengths:vector ETV
attr interpolationmode none
attr recordingmode vector
attr source "packetLength(merge(packetPushedIn, packetPulledIn))"
attr title "incoming packet lengths"
attr unit b
vector 211 TwoMasterClocksRingGptpShowcase.tsnClock2.ethernet.fcsChecker incomingDataRate:vector ETV
attr interpolationmode linear
attr recordingmode vector
attr source "throughput(merge(packetPushedIn, packetPulledIn))"
attr title "incoming data rate"
attr unit bps
vector 212 TwoMasterClocksRingGptpShowcase.tsnClock2.ethernet.fcsChecker outgoingPacketLengths:vector ETV
attr interpolationmode none
attr recordingmode vector
attr source "packetLength(merge(packetPushedOut, packetPulledOut))"
attr title "outgoing packet lengths"
attr unit b
vector 213 TwoMasterClocksRingGptpShowcase.tsnClock2.ethernet.fcsChecker outgoingDataRate:vector ETV
attr interpolationmode linear
attr recordingmode vector
attr source "throughput(merge(packetPushedOut, packetPulledOut))"
attr title "outgoing data rate"
attr unit bps
vector 214 TwoMasterClocksRingGptpShowcase.tsnClock2.ethernet.fcsChecker droppedPacketLengths:vector ETV
attr interpolationmode none
attr recordingmode vector
attr source packetLength(packetDropped)
attr title "dropped packet lengths"
attr unit b
vector 215 TwoMasterClocksRingGptpShowcase.tsnClock2.ethernet.fcsChecker droppedDataRate:vector ETV
attr interpolationmode linear
attr recordingmode vector
attr source throughput(packetDropped)
attr title "dropped data rate"
attr unit bps
vector 216 TwoMasterClocksRingGptpShowcase.tsnClock2.ethernet.fcsChecker flowIncomingPacketLengths:vector ETV
attr interpolationmode none
attr recordingmode vector
attr source "packetLength(demuxFlow(merge(packetPushedIn, packetPulledIn)))"
attr title "flow specific incoming packet lengths"
attr unit b
vector 217 TwoMasterClocksRingGptpShowcase.tsnClock2.ethernet.fcsChecker flowIncomingDataRate:vector ETV
attr interpolationmode linear
attr recordingmode vector
attr source "throughput(demuxFlow(merge(packetPushedIn, packetPulledIn)))"
attr title "flow specific incoming data rate"
attr unit bps
vector 218 TwoMasterClocksRingGptpShowcase.tsnClock2.ethernet.fcsChecker flowOutgoingPacketLengths:vector ETV
attr interpolationmode none
attr recordingmode vector
attr source "packetLength(demuxFlow(merge(packetPushedOut, packetPulledOut)))"
attr title "flow specific outgoing packet lengths"
attr unit b
vector 219 TwoMasterClocksRingGptpShowcase.tsnClock2.ethernet.fcsChecker flowOutgoingDataRate:vector ETV
attr interpolationmode linear
attr recordingmode vector
attr source "throughput(demuxFlow(merge(packetPushedOut, packetPulledOut)))"
attr title "flow specific outgoing data rate"
attr unit bps
vector 220 TwoMasterClocksRingGptpShowcase.tsnClock2.ethernet.fcsChecker flowDroppedPacketLengths:vector ETV
attr interpolationmode none
attr recordingmode vector
attr source packetLength(demuxFlow(packetDropped))
attr title "flow specific dropped packet lengths"
attr unit b
vector 221 TwoMasterClocksRingGptpShowcase.tsnClock2.ethernet.fcsChecker flowDroppedDataRate:vector ETV
attr interpolationmode linear
attr recordingmode vector
attr source throughput(demuxFlow(packetDropped))
attr title "flow specific dropped data rate"
attr unit bps
vector 222 TwoMasterClocksRingGptpShowcase.tsnClock2.lo[0].lo rcvdPkFromHl:vector(packetBytes) ETV
attr interpolationmode none
attr recordingmode vector(packetBytes)
attr source packetReceivedFromUpper
attr title "packets received from higher layer, packetBytes"
vector 223 TwoMasterClocksRingGptpShowcase.tsnClock2.lo[0].lo passedUpPk:vector(packetBytes) ETV
attr interpolationmode none
attr recordingmode vector(packetBytes)
attr source packetSentToUpper
attr title "packets passed to higher layer, packetBytes"
vector 224 TwoMasterClocksRingGptpShowcase.tsnClock2.lo[0] packetDropInterfaceDown:vector(packetBytes) ETV
attr interpolationmode none
attr recordingmode vector(packetBytes)
attr source packetDropReasonIsInterfaceDown(packetDropped)
attr title "packet drops: interface down, packetBytes"
vector 225 TwoMasterClocksRingGptpShowcase.tsnClock2.lo[0] packetDropNoCarrier:vector(packetBytes) ETV
attr interpolationmode none
attr recordingmode vector(packetBytes)
attr source packetDropReasonIsNoCarrier(packetDropped)
attr title "packet drops: no carrier, packetBytes"
vector 226 TwoMasterClocksRingGptpShowcase.tsnClock2.eth[0].macLayer.queue queueLength:vector ETV
attr autoWarmupFilter false
attr interpolationmode sample-hold
attr recordingmode vector
attr source "warmup(atomic(constant0(packetPushEnded) + count(packetPushStarted) - count(packetPulled) - count(packetRemoved) - count(packetDropped)))"
attr title "queue length"
attr unit pk
vector 227 TwoMasterClocksRingGptpShowcase.tsnClock2.eth[0].macLayer.queue queueBitLength:vector ETV
attr autoWarmupFilter false
attr interpolationmode sample-hold
attr recordingmode vector
attr source "warmup(atomic(constant0(packetPushEnded) + sum(packetLength(packetPushStarted)) - sum(packetLength(packetPulled)) - sum(packetLength(packetRemoved)) - sum(packetLength(packetDropped))))"
attr title "queue bit length"
attr unit b
vector 228 TwoMasterClocksRingGptpShowcase.tsnClock2.eth[0].macLayer.queue queueingTime:vector ETV
attr interpolationmode none
attr recordingmode vector
attr source queueingTime(packetPulled)
attr title "queueing times"
attr unit s
vector 229 TwoMasterClocksRingGptpShowcase.tsnClock2.eth[0].macLayer.queue incomingPacketLengths:vector ETV
attr interpolationmode none
attr recordingmode vector
attr source packetLength(packetPushStarted)
attr title "incoming packet lengths"
attr unit b
vector 230 TwoMasterClocksRingGptpShowcase.tsnClock2.eth[0].macLayer.queue incomingDataRate:vector ETV
attr interpolationmode linear
attr recordingmode vector
attr source throughput(packetPushStarted)
attr title "incoming datarate"
attr unit bps
vector 231 TwoMasterClocksRingGptpShowcase.tsnClock2.eth[0].macLayer.queue outgoingPacketLengths:vector ETV
attr interpolationmode none
attr recordingmode vector
attr source packetLength(packetPulled)
attr title "outgoing packet lengths"
attr unit b
vector 232 TwoMasterClocksRingGptpShowcase.tsnClock2.eth[0].macLayer.queue outgoingDataRate:vector ETV
attr interpolationmode linear
attr recordingmode vector
attr source throughput(packetPulled)
attr title "outgoing datarate"
attr unit bps
vector 233 TwoMasterClocksRingGptpShowcase.tsnClock2.eth[0].macLayer.queue droppedPacketLengthsQueueOverflow:vector ETV
attr interpolationmode none
attr recordingmode vector
attr source packetLength(packetDropReasonIsQueueOverflow(packetDropped))
attr title "dropped packet lengths: queue overflow"
attr unit b
vector 234 TwoMasterClocksRingGptpShowcase.tsnClock2.eth[0].macLayer.queue flowQueueingTime:vector ETV
attr interpolationmode none
attr recordingmode vector
attr source queueingTime(demuxFlow(packetPulled))
attr title "flow queueing times"
attr unit s
vector 235 TwoMasterClocksRingGptpShowcase.tsnClock2.eth[0].macLayer.queue flowIncomingDataRate:vector ETV
attr interpolationmode linear
attr recordingmode vector
attr source throughput(flowPacketLength(demuxFlow(packetPushStarted)))
attr title "flow specific incoming data rate"
attr unit bps
vector 236 TwoMasterClocksRingGptpShowcase.tsnClock2.eth[0].macLayer.queue flowOutgoingDataRate:vector ETV
attr interpolationmode linear
attr recordingmode vector
attr source throughput(flowPacketLength(demuxFlow(packetPulled)))
attr title "flow specific outgoing data rate"
attr unit bps
vector 237 TwoMasterClocksRingGptpShowcase.tsnClock2.eth[0].macLayer.server incomingPacketLengths:vector ETV
attr interpolationmode none
attr recordingmode vector
attr source packetLength(packetPulled)
attr title "incoming packet lengths"
attr unit b
vector 238 TwoMasterClocksRingGptpShowcase.tsnClock2.eth[0].macLayer.server incomingDataRate:vector ETV
attr interpolationmode linear
attr recordingmode vector
attr source throughput(packetPulled)
attr title "incoming datarate"
attr unit bps
vector 239 TwoMasterClocksRingGptpShowcase.tsnClock2.eth[0].macLayer.server outgoingPacketLengths:vector ETV
attr interpolationmode none
attr recordingmode vector
attr source packetLength(packetPushed)
attr title "outgoing packet lengths"
attr unit b
vector 240 TwoMasterClocksRingGptpShowcase.tsnClock2.eth[0].macLayer.server outgoingDataRate:vector ETV
attr interpolationmode linear
attr recordingmode vector
attr source throughput(packetPushed)
attr title "outgoing datarate"
attr unit bps
vector 241 TwoMasterClocksRingGptpShowcase.tsnClock2.eth[0].macLayer.outboundEmitter incomingPacketLengths:vector ETV
attr interpolationmode none
attr recordingmode vector
attr source "packetLength(merge(packetPushedIn, packetPulledIn))"
attr title "incoming packet lengths"
attr unit b
vector 242 TwoMasterClocksRingGptpShowcase.tsnClock2.eth[0].macLayer.outboundEmitter incomingDataRate:vector ETV
attr interpolationmode linear
attr recordingmode vector
attr source "throughput(merge(packetPushedIn, packetPulledIn))"
attr title "incoming data rate"
attr unit bps
vector 243 TwoMasterClocksRingGptpShowcase.tsnClock2.eth[0].macLayer.outboundEmitter outgoingPacketLengths:vector ETV
attr interpolationmode none
attr recordingmode vector
attr source "packetLength(merge(packetPushedOut, packetPulledOut))"
attr title "outgoing packet lengths"
attr unit b
vector 244 TwoMasterClocksRingGptpShowcase.tsnClock2.eth[0].macLayer.outboundEmitter outgoingDataRate:vector ETV
attr interpolationmode linear
attr recordingmode vector
attr source "throughput(merge(packetPushedOut, packetPulledOut))"
attr title "outgoing data rate"
attr unit bps
vector 245 TwoMasterClocksRingGptpShowcase.tsnClock2.eth[0].macLayer.outboundEmitter flowIncomingPacketLengths:vector ETV
attr interpolationmode none
attr recordingmode vector
attr source "packetLength(demuxFlow(merge(packetPushedIn, packetPulledIn)))"
attr title "flow specific incoming packet lengths"
attr unit b
vector 246 TwoMasterClocksRingGptpShowcase.tsnClock2.eth[0].macLayer.outboundEmitter flowIncomingDataRate:vector ETV
attr interpolationmode linear
attr recordingmode vector
attr source "throughput(demuxFlow(merge(packetPushedIn, packetPulledIn)))"
attr title "flow specific incoming data rate"
attr unit bps
vector 247 TwoMasterClocksRingGptpShowcase.tsnClock2.eth[0].macLayer.outboundEmitter flowOutgoingPacketLengths:vector ETV
attr interpolationmode none
attr recordingmode vector
attr source "packetLength(demuxFlow(merge(packetPushedOut, packetPulledOut)))"
attr title "flow specific outgoing packet lengths"
attr unit b
vector 248 TwoMasterClocksRingGptpShowcase.tsnClock2.eth[0].macLayer.outboundEmitter flowOutgoingDataRate:vector ETV
attr interpolationmode linear
attr recordingmode vector
attr source "throughput(demuxFlow(merge(packetPushedOut, packetPulledOut)))"
attr title "flow specific outgoing data rate"
attr unit bps
vector 249 TwoMasterClocksRingGptpShowcase.tsnClock2.eth[0].macLayer.fcsChecker incomingPacketLengths:vector ETV
attr interpolationmode none
[...]
3031	4042597 871 8269 18017 1.312589605147 3.912589605147 27 -21992.919322333 79520 689047.08067767 26992949300.319
3032	4043468 6494 415 18022 0.000120897222 3.968858174168 222 368 608 106544 53955328
3033	4049962 862 8269 18017 1.312589605147 3.912589605147 27 -17825.33850868 63840 558814.66149132 17656264292.949
3042	4050824 6494 415 18022 0.000120897222 3.968858174168 222 512 752 138512 89243392
3043	4057318 871 8269 18017 1.312589605147 3.912589605147 27 -23183.656697662 84000 726256.34330234 30023613137.875
3044	4058189 6494 415 18022 0.000120897222 3.968858174168 222 480 720 131408 80605952
3045	4064683 871 8269 18017 1.312589605147 3.912589605147 27 -21992.919322333 79520 689047.08067767 26992949300.319
3058	4065554 921 0 15384 0 3.000125651632 37 0 3 22 32
3059	4066475 960 0 15384 0 3.000125651632 37 0 1728 12672 10616832
3060	4067435 509 75 15384 0.000099997037 3.000125651632 16 0 2.2067441e-05 4.9260898e-05 7.6597225653242e-10
3061	4067944 465 74 15363 0.000099997037 3.000124954359 16 576 576 9216 5308416
3063	4068409 465 75 15384 0.000099997037 3.000125651632 16 576 576 9216 5308416
3069	4068874 465 75 15384 0.000099997037 3.000125651632 16 576 576 9216 5308416
3071	4069339 465 75 15384 0.000099997037 3.000125651632 16 576 576 9216 5308416
3073	4069804 465 75 15384 0.000099997037 3.000125651632 16 576 576 9216 5308416
3075	4070269 465 75 15384 0.000099997037 3.000125651632 16 576 576 9216 5308416
3081	4070734 6494 415 18022 0.000120897222 3.968858174168 222 512 752 138512 89243392
3082	4077228 871 8269 18017 1.312589605147 3.912589605147 27 -23183.656697662 84000 726256.34330234 30023613137.875
3083	4078099 6494 415 18022 0.000120897222 3.968858174168 222 512 752 138512 89243392
3084	4084593 871 8269 18017 1.312589605147 3.912589605147 27 -23183.656697662 84000 726256.34330234 30023613137.875
3093	4085464 6494 415 18022 0.000120897222 3.968858174168 222 512 752 138512 89243392
3094	4091958 871 8269 18017 1.312589605147 3.912589605147 27 -23183.656697662 84000 726256.34330234 30023613137.875
3095	4092829 6494 415 18022 0.000120897222 3.968858174168 222 512 752 138512 89243392
3096	4099323 871 8269 18017 1.312589605147 3.912589605147 27 -23183.656697662 84000 726256.34330234 30023613137.875
3101	4100194 465 75 15384 0.000099997037 3.000125651632 16 576 576 9216 5308416
3103	4100659 465 75 15384 0.000099997037 3.000125651632 16 640 640 10240 6553600
3109	4101124 890 0 15507 0 3.000133011632 34 0 1 16 16
3110	4102014 465 75 15384 0.000099997037 3.000125651632 16 640 640 10240 6553600
3112	4102479 465 75 15384 0.000099997037 3.000125651632 16 640 640 10240 6553600
3118	4102944 889 0 15492 0 3.000132051632 34 0 1 16 16
3121	4103833 530 161 15492 0.000106397037 3.000132051632 16 6.4e-06 6.4e-06 0.0001024 6.5536e-10
3123	4104363 6494 415 18022 0.000120897222 3.968858174168 222 576 816 152720 107882240
3124	4110857 871 8269 18017 1.312589605147 3.912589605147 27 -25565.131448321 92960 800674.86855168 36568993545.97
3125	4111728 6494 415 18022 0.000120897222 3.968858174168 222 512 752 138512 89243392
3126	4118222 871 8269 18017 1.312589605147 3.912589605147 27 -23183.656697662 84000 726256.34330234 30023613137.875
3135	4119093 6494 415 18022 0.000120897222 3.968858174168 222 576 816 152720 107882240
3136	4125587 871 8269 18017 1.312589605147 3.912589605147 27 -25565.131448321 92960 800674.86855168 36568993545.97
3137	4126458 6494 415 18022 0.000120897222 3.968858174168 222 576 816 152720 107882240
3138	4132952 871 8269 18017 1.312589605147 3.912589605147 27 -25565.131448321 92960 800674.86855168 36568993545.97
3143	4133823 900 8269 18029 1.312589605147 4 28 -25565.131448321 92960 816599.74799355 36822595331.208
3144	4134723 7572 415 18022 0.000120897222 3.968858174168 222 5.76e-06 8.16e-06 0.0015272 1.0788224e-08
3156	4142295 11 0 0 0 0 1 0 0 0 0
3157	4142306 11 0 0 0 0 1 0 0 0 0
3158	4142317 11 0 0 0 0 1 0 0 0 0
3159	4142328 640 1072 11067 0.031309705022 1.906310809458 16 0.031309719619 1.906309719909 15.500955513436 20.329976369335
3160	4142968 1196 1072 11067 0.031309705022 1.906310809458 32 -1.0307154e-05 7.3468e-07 -1.0815359e-05 1.2176650794825e-10
3161	4144164 649 1072 11067 0.031309705022 1.906310809458 16 0.99999801329995 1.0000842070025 16.000080473834 16.000160954775
3162	4144813 144 961 15787 0.000165057222 3.000163042096 4 4.878e-08 5.0003e-08 1.98778e-07 9.879288422e-15
3164	4144957 640 1286 11281 0.062589528933 1.937590780544 16 0.062589579716 1.937589579843 16.00143328044 21.315366687463
3165	4145597 1194 1286 11281 0.062589528933 1.937590780544 32 -1.200701e-06 3.755073e-06 7.013673e-06 2.7348346658631e-11
3166	4146791 646 1286 11281 0.062589528933 1.937590780544 16 0.99997233110967 1.0000015783705 15.999967923431 15.999935847645
3167	4147437 144 595 15397 0.000128257222 3.000126242096 4 4.9996e-08 5.0381e-08 2.00377e-07 1.0037845209e-14
3169	4147581 1287 1445 18023 0.093853594756 3.968858174168 32 0.093854221663 3.968852738312 65.003291199111 174.66960974533
3170	4148868 2464 1445 18023 0.093853594756 3.968858174168 64 -1.1367516e-05 8.75483e-07 -0.000130139578 6.5188152350375e-10
3171	4151332 1264 1445 18023 0.093853594756 3.968858174168 32 0.9999963696 1.0000935140701 32.00009385807 32.000187724954
3172	4152596 138 981 15799 0.000172417222 3.000170402096 4 4.878e-08 5.0012e-08 1.98782e-07 9.879688644e-15
3174	4152734 1252 1503 17785 0.125043569675 3.875048256612 31 0.125044499758 3.875043018438 62.001336776458 162.75533763681
3175	4153986 2386 1503 17785 0.125043569675 3.875048256612 62 -5.238179e-06 9.54711e-07 -0.000107063849 4.1403183337638e-10
3176	4156372 1231 1503 17785 0.125043569675 3.875048256612 31 0.999995548256 1.0000218774301 31.000024245078 31.000048490752
3177	4157603 140 913 15722 0.000150337222 3.000148322096 4 4.9991e-08 5.0153e-08 2.00159e-07 1.0015923715e-14
3181	4157743 6494 415 18022 0.000120897222 3.968858174168 222 368 608 106544 53955328
3182	4164237 891 8269 18029 1.312589605147 4 28 -17825.33850868 63840 569980.38155976 17780937597.596
3184	4165128 1316 0 18029 0 4 34 0 3.999994498577 35.002871723607 56.661763737274
3186	4166444 1315 0 18029 0 4 34 0 3.999993760816 36.00192221931 58.628778234698
3188	4167759 2529 0 18029 0 4 64 0 3.999994498521 126.06518062538 333.82101628111
3190	4170288 2377 0 18029 0 4 60 0 3.999994498528 115.7559538064 303.61669204866
3191	4172665 2590 0 18029 0 4 66 0 3.999994498521 128.066659669 337.82371289049
3192	4175255 462 32 15343 0.000099990858 3.000122458003 16 432 432 6912 2985984
3194	4175717 462 32 15343 0.000099990858 3.000122458003 16 544 544 8704 4734976
3200	4176179 462 32 15343 0.000099990858 3.000122458003 16 544 544 8704 4734976
3202	4176641 462 32 15343 0.000099990858 3.000122458003 16 544 544 8704 4734976
3208	4177103 462 32 15343 0.000099990858 3.000122458003 16 544 544 8704 4734976
3210	4177565 462 32 15343 0.000099990858 3.000122458003 16 576 576 9216 5308416
3216	4178027 6486 407 17935 0.000120890894 3.968798454168 222 480 720 131408 80605952
3217	4184513 871 8213 17925 1.312559745147 3.912559745147 27 -21992.674960223 79520 689047.32503978 26992938551.906
3218	4185384 6486 407 17935 0.000120890894 3.968798454168 222 368 608 106544 53955328
3219	4191870 862 8213 17925 1.312559745147 3.912559745147 27 -17825.14045233 63840 558814.85954767 17656257232.145
3228	4192732 6486 407 17935 0.000120890894 3.968798454168 222 512 752 138512 89243392
3229	4199218 871 8213 17925 1.312559745147 3.912559745147 27 -23183.399105335 84000 726256.60089467 30023601194.077
3230	4200089 6486 407 17935 0.000120890894 3.968798454168 222 480 720 131408 80605952
3231	4206575 871 8213 17925 1.312559745147 3.912559745147 27 -21992.674960223 79520 689047.32503978 26992938551.906
3244	4207446 919 0 15344 0 3.000122458003 37 0 3 26 40
3245	4208365 964 0 15344 0 3.000122458003 37 0 1728 14976 13271040
3246	4209329 511 33 15344 0.000099990858 3.000122458003 16 0 2.2063665e-05 6.4344343e-05 8.9813182051129e-10
3247	4209840 462 32 15343 0.000099990858 3.000122458003 16 576 576 9216 5308416
3249	4210302 466 33 15344 0.000099990858 3.000122458003 16 576 576 9216 5308416
3255	4210768 466 33 15344 0.000099990858 3.000122458003 16 576 576 9216 5308416
3257	4211234 466 33 15344 0.000099990858 3.000122458003 16 576 576 9216 5308416
3259	4211700 466 33 15344 0.000099990858 3.000122458003 16 576 576 9216 5308416
3261	4212166 466 33 15344 0.000099990858 3.000122458003 16 576 576 9216 5308416
3267	4212632 6486 407 17935 0.000120890894 3.968798454168 222 512 752 138512 89243392
3268	4219118 871 8213 17925 1.312559745147 3.912559745147 27 -23183.399105335 84000 726256.60089467 30023601194.077
3269	4219989 6486 407 17935 0.000120890894 3.968798454168 222 512 752 138512 89243392
3270	4226475 871 8213 17925 1.312559745147 3.912559745147 27 -23183.399105335 84000 726256.60089467 30023601194.077
3279	4227346 6486 407 17935 0.000120890894 3.968798454168 222 512 752 138512 89243392
3280	4233832 871 8213 17925 1.312559745147 3.912559745147 27 -23183.399105335 84000 726256.60089467 30023601194.077
3281	4234703 6486 407 17935 0.000120890894 3.968798454168 222 512 752 138512 89243392
3282	4241189 871 8213 17925 1.312559745147 3.912559745147 27 -23183.399105335 84000 726256.60089467 30023601194.077
3287	4242060 466 33 15344 0.000099990858 3.000122458003 16 576 576 9216 5308416
3289	4242526 466 33 15344 0.000099990858 3.000122458003 16 640 640 10240 6553600
3295	4242992 892 0 15472 0 3.000129818003 34 0 1 16 16
3296	4243884 466 33 15344 0.000099990858 3.000122458003 16 640 640 10240 6553600
3298	4244350 466 33 15344 0.000099990858 3.000122458003 16 640 640 10240 6553600
3304	4244816 891 0 15445 0 3.000128858003 34 0 1 16 16
3307	4245707 531 153 15445 0.000106390858 3.000128858003 16 6.4e-06 6.4e-06 0.0001024 6.5536e-10
3309	4246238 6486 407 17935 0.000120890894 3.968798454168 222 576 816 152720 107882240
3310	4252724 871 8213 17925 1.312559745147 3.912559745147 27 -25564.847395559 92960 800675.15260444 36568979022.358
3311	4253595 6486 407 17935 0.000120890894 3.968798454168 222 512 752 138512 89243392
3312	4260081 871 8213 17925 1.312559745147 3.912559745147 27 -23183.399105335 84000 726256.60089467 30023601194.077
3321	4260952 6486 407 17935 0.000120890894 3.968798454168 222 576 816 152720 107882240
3322	4267438 871 8213 17925 1.312559745147 3.912559745147 27 -25564.847395559 92960 800675.15260444 36568979022.358
3323	4268309 6486 407 17935 0.000120890894 3.968798454168 222 576 816 152720 107882240
3324	4274795 871 8213 17925 1.312559745147 3.912559745147 27 -25564.847395559 92960 800675.15260444 36568979022.358
3329	4275666 900 8213 18029 1.312559745147 4 28 -25564.847395559 92960 816594.59385424 36822407632.064
3330	4276566 7564 407 17935 0.000120890894 3.968798454168 222 5.76e-06 8.16e-06 0.0015272 1.0788224e-08
3342	4284130 11 0 0 0 0 1 0 0 0 0
3343	4284141 11 0 0 0 0 1 0 0 0 0
3344	4284152 11 0 0 0 0 1 0 0 0 0
3345	4284163 639 1128 11123 0.031339565022 1.906340669458 16 0.031339583257 1.906339579861 15.501433288972 20.330902111484
3346	4284802 1193 1128 11123 0.031339565022 1.906340669458 32 -1.089597e-06 8.333717e-06 1.2523068e-05 8.2666049011226e-11
3347	4285995 649 1128 11123 0.031339565022 1.906340669458 16 0.9999351038754 1.0000013016737 15.999931373123 15.999862750474
3348	4286644 144 909 15740 0.000150330894 3.00015029276 4 4.9994e-08 5.0981e-08 2.00972e-07 1.0098162442e-14
3350	4286788 638 1230 11225 0.062559668933 1.937560920544 16 0.062559722407 1.937559719897 16.00095552815 21.314411101602
3351	4287426 1192 1230 11225 0.062559668933 1.937560920544 32 -1.200647e-06 1.148233e-05 1.8616936e-05 1.7437513642537e-10
3352	4288618 642 1230 11225 0.062559668933 1.937560920544 16 0.99991053648422 1.0000015780905 15.999906134157 15.999812276336
3353	4289260 144 587 15444 0.000128250894 3.00012821276 4 4.9994e-08 5.0695e-08 2.00688e-07 1.0069283122e-14
3355	4289404 1286 1359 17937 0.093793874756 3.968798454168 32 0.093794504779 3.968793018439 65.001380179062 174.66184589751
3356	4290690 2462 1359 17937 0.093793874756 3.968798454168 64 -5.435729e-06 7.583874e-06 -9.6928217e-05 5.2629607649425e-10
3357	4293152 1255 1359 17937 0.093793874756 3.968798454168 32 0.99994192140796 1.000004667336 31.999942264648 31.999884532738
3358	4294407 138 957 15674 0.000165050894 3.00014293276 4 4.9974e-08 5.0014e-08 1.99978e-07 9.997800972e-15
3360	4294545 1252 1589 17871 0.125103289675 3.875107976612 31 0.125104219946 3.875102738316 62.003194460138 162.76275480621
3361	4295797 2398 1589 17871 0.125103289675 3.875107976612 62 -8.99866e-06 9.51904e-07 -0.000120460007 5.455753727523e-10
3362	4298195 1224 1589 17871 0.125103289675 3.875107976612 31 0.99999554704801 1.0000674526943 31.000069827539 31.000139659747
3363	4299419 137 977 15794 0.000172410894 3.00016501276 4 4.804e-08 5.0014e-08 1.9804e-07 9.807841992e-15
3367	4299556 6486 407 17935 0.000120890894 3.968798454168 222 368 608 106544 53955328
3368	4306042 891 8213 18029 1.312559745147 4 28 -17825.14045233 63840 569976.76663086 17780845401.879
3370	4306933 1316 0 18029 0 4 34 0 3.999994498621 35.003350655343 56.662689797907
3372	4308249 1316 0 18029 0 4 34 0 3.999993760901 36.001441194507 58.627821715582
3374	4309565 2532 0 18029 0 4 64 0 3.99999449852 126.31611506438 335.77781803496
3376	4312097 2456 0 18029 0 4 62 0 3.999994498529 122.50528018222 326.39579675441
3377	4314553 2591 0 18029 0 4 66 0 3.99999449852 128.3175864997 339.78045237052
3378	4317144 464 26 15077 0.000099990429 3.000105786658 16 432 432 6912 2985984
3380	4317608 464 26 15077 0.000099990429 3.000105786658 16 544 544 8704 4734976
3386	4318072 464 26 15077 0.000099990429 3.000105786658 16 544 544 8704 4734976
3388	4318536 464 26 15077 0.000099990429 3.000105786658 16 544 544 8704 4734976
3394	4319000 464 26 15077 0.000099990429 3.000105786658 16 544 544 8704 4734976
3396	4319464 464 26 15077 0.000099990429 3.000105786658 16 576 576 9216 5308416
3402	4319928 6486 405 17963 0.00012089032 3.968813384168 222 480 720 131408 80605952
3403	4326414 871 8185 17953 1.312544815147 3.912544815147 27 -21992.552781204 79520 689047.4472188 26992933177.834
3404	4327285 6486 405 17963 0.00012089032 3.968813384168 222 368 608 106544 53955328
3405	4333771 863 8185 17953 1.312544815147 3.912544815147 27 -17825.041425805 63840 558814.95857419 17656253701.832
3414	4334634 6486 405 17963 0.00012089032 3.968813384168 222 512 752 138512 89243392
3415	4341120 871 8185 17953 1.312544815147 3.912544815147 27 -23183.270311318 84000 726256.72968868 30023595222.328
3416	4341991 6486 405 17963 0.00012089032 3.968813384168 222 480 720 131408 80605952
3417	4348477 871 8185 17953 1.312544815147 3.912544815147 27 -21992.552781204 79520 689047.4472188 26992933177.834
3430	4349348 919 0 15078 0 3.000105786658 37 0 3 22 32
3431	4350267 958 0 15078 0 3.000105786658 37 0 1728 12672 10616832
3432	4351225 519 27 15078 0.000099990429 3.000105786658 16 0 2.2069902e-05 6.4861972e-05 8.839018782997e-10
3433	4351744 464 26 15077 0.000099990429 3.000105786658 16 576 576 9216 5308416
3435	4352208 464 27 15078 0.000099990429 3.000105786658 16 576 576 9216 5308416
3441	4352672 464 27 15078 0.000099990429 3.000105786658 16 576 576 9216 5308416
3443	4353136 464 27 15078 0.000099990429 3.000105786658 16 576 576 9216 5308416
3445	4353600 464 27 15078 0.000099990429 3.000105786658 16 576 576 9216 5308416
3447	4354064 464 27 15078 0.000099990429 3.000105786658 16 576 576 9216 5308416
3453	4354528 6486 405 17963 0.00012089032 3.968813384168 222 512 752 138512 89243392
3454	4361014 871 8185 17953 1.312544815147 3.912544815147 27 -23183.270311318 84000 726256.72968868 30023595222.328
3455	4361885 6486 405 17963 0.00012089032 3.968813384168 222 512 752 138512 89243392
3456	4368371 871 8185 17953 1.312544815147 3.912544815147 27 -23183.270311318 84000 726256.72968868 30023595222.328
3465	4369242 6486 405 17963 0.00012089032 3.968813384168 222 512 752 138512 89243392
3466	4375728 871 8185 17953 1.312544815147 3.912544815147 27 -23183.270311318 84000 726256.72968868 30023595222.328
3467	4376599 6486 405 17963 0.00012089032 3.968813384168 222 512 752 138512 89243392
3468	4383085 871 8185 17953 1.312544815147 3.912544815147 27 -23183.270311318 84000 726256.72968868 30023595222.328
3473	4383956 464 27 15078 0.000099990429 3.000105786658 16 576 576 9216 5308416
3475	4384420 464 27 15078 0.000099990429 3.000105786658 16 640 640 10240 6553600
3481	4384884 888 0 15196 0 3.000113146658 34 0 1 16 16
3482	4385772 464 27 15078 0.000099990429 3.000105786658 16 640 640 10240 6553600
3484	4386236 464 27 15078 0.000099990429 3.000105786658 16 640 640 10240 6553600
3490	4386700 887 0 15170 0 3.000112186658 34 0 1 16 16
3493	4387587 529 151 15170 0.000106390429 3.000112186658 16 6.4e-06 6.4e-06 0.0001024 6.5536e-10
3495	4388116 6486 405 17963 0.00012089032 3.968813384168 222 576 816 152720 107882240
3496	4394602 871 8185 17953 1.312544815147 3.912544815147 27 -25564.705371546 92960 800675.29462845 36568971760.734
3497	4395473 6486 405 17963 0.00012089032 3.968813384168 222 512 752 138512 89243392
3498	4401959 871 8185 17953 1.312544815147 3.912544815147 27 -23183.270311318 84000 726256.72968868 30023595222.328
3507	4402830 6486 405 17963 0.00012089032 3.968813384168 222 576 816 152720 107882240
3508	4409316 871 8185 17953 1.312544815147 3.912544815147 27 -25564.705371546 92960 800675.29462845 36568971760.734
3509	4410187 6486 405 17963 0.00012089032 3.968813384168 222 576 816 152720 107882240
3510	4416673 871 8185 17953 1.312544815147 3.912544815147 27 -25564.705371546 92960 800675.29462845 36568971760.734
3515	4417544 900 8185 18029 1.312544815147 4 28 -25564.705371546 92960 816592.0181748 36822313849.185
3516	4418444 7564 405 17963 0.00012089032 3.968813384168 222 5.76e-06 8.16e-06 0.0015272 1.0788224e-08
3528	4426008 11 0 0 0 0 1 0 0 0 0
3529	4426019 11 0 0 0 0 1 0 0 0 0
3530	4426030 11 0 0 0 0 1 0 0 0 0
3531	4426041 640 1144 11139 0.031354495022 1.906355599458 16 0.031354513498 1.906354509839 15.501672169882 20.331364988199
3532	4426681 1197 1144 11139 0.031354495022 1.906355599458 32 -1.089619e-06 9.268765e-06 1.369476e-05 1.0016403793566e-10
3533	4427878 649 1144 11139 0.031354495022 1.906355599458 16 0.9999276262539 1.0000013018657 15.999923895718 15.999847796689
3534	4428527 144 955 15714 0.00016505032 3.000148069477 4 4.9996e-08 5.0747e-08 2.00744e-07 1.0074958066e-14
3536	4428671 639 1202 11197 0.062544738933 1.937545990544 16 0.062544792477 1.937544789924 16.000716649337 21.313933318325
3537	4429310 1192 1202 11197 0.062544738933 1.937545990544 32 -1.20062e-06 9.305707e-06 1.5352048e-05 1.1784324040142e-10
3538	4430502 644 1202 11197 0.062544738933 1.937545990544 16 0.99992794691982 1.0000015779785 15.999923544937 15.999847095083
3539	4431146 144 907 15511 0.00015033032 3.000133349477 4 4.9993e-08 5.0853e-08 2.00845e-07 1.0085227719e-14
3541	4431290 1287 1387 17965 0.093808804756 3.968813384168 32 0.093809435642 3.968807948406 65.001857941805 174.66378684502
3542	4432577 2461 1387 17965 0.093808804756 3.968813384168 64 -5.435763e-06 1.2596228e-05 -8.8149275e-05 6.8086835107086e-10
3543	4435038 1266 1387 17965 0.093808804756 3.968813384168 32 0.99990183450232 1.00000466712 31.99990217851 31.999804366726
3544	4436304 139 585 15142 0.00012825032 3.000111269477 4 4.9993e-08 5.0596e-08 2.006e-07 1.0060355386e-14
3546	4436443 1251 1573 17855 0.125088359675 3.875093046612 31 0.125089291202 3.875087808347 62.002731644131 162.76090341776
3547	4437694 2388 1573 17855 0.125088359675 3.875093046612 62 -5.238272e-06 9.54079e-07 -0.000103760727 4.0015046461172e-10
3548	4440082 1235 1573 17855 0.125088359675 3.875093046612 31 0.99999554734401 1.000006808568 31.00000317124 31.0000063426
3549	4441317 139 975 15758 0.00017241032 3.000155429477 4 4.9983e-08 5.0236e-08 2.00232e-07 1.0023256154e-14
3553	4441456 6486 405 17963 0.00012089032 3.968813384168 222 368 608 106544 53955328
3554	4447942 891 8185 18029 1.312544815147 4 28 -17825.041425805 63840 569974.96014117 17780799336.807

