version 3
run RingFailover-0-20250715-10:59:06-9622
attr configname RingFailover
attr datetime 20250715-10:59:06
attr datetimef 20250715-105906
attr experiment RingFailover
attr inifile omnetpp.ini
attr iterationvars ""
attr iterationvarsd ""
attr iterationvarsf ""
attr measurement ""
attr network TwoMasterClocksRingGptpShowcase
attr processid 9622
attr repetition 0
attr replication #0
attr resultdir results
attr runnumber 0
attr seedset 0
config image-path ../../../../images
config extends TwoMasterClocksExploitingNetworkRedundancy
config description "Ring topology with primary master fail‑over em 0.3 s"
config network TwoMasterClocksRingGptpShowcase
config experiment-label RingFailover
config *.scenarioManager.typename ScenarioManager
config *.scenarioManager.script "xmldoc(\"failover.xml\")"
config network TwoMasterClocksRingGptpShowcase
config description "Ring topology with redundant time synchronization domains"
config experiment-label RingFailover
config *.tsnClock2.clock.typename MultiClock
config *.tsnClock2.clock.numClocks 2
config *.tsnClock*.gptp.typename MultiDomainGptp
config *.tsnClock1.gptp.numDomains 2
config *.tsnClock1.gptp.domain[0..1].clockModule "\"tsnClock1.clock\""
config *.tsnClock1.gptp.domain[0].masterPorts "[\"eth0\"]"
config *.tsnClock1.gptp.domain[1].masterPorts "[\"eth0\"]"
config *.tsnClock2.gptp.numDomains 4
config *.tsnClock2.gptp.domain[2..3].clockModule "\"tsnClock2.clock\""
config *.tsnClock2.gptp.domain[0].gptpNodeType "\"SLAVE_NODE\""
config *.tsnClock2.gptp.domain[0].slavePort "\"eth0\""
config *.tsnClock2.gptp.domain[1].gptpNodeType "\"SLAVE_NODE\""
config *.tsnClock2.gptp.domain[1].slavePort "\"eth0\""
config *.tsnClock2.gptp.domain[2].gptpNodeType "\"MASTER_NODE\""
config *.tsnClock2.gptp.domain[2].masterPorts "[\"eth0\"]"
config *.tsnClock2.gptp.domain[3].gptpNodeType "\"MASTER_NODE\""
config *.tsnClock2.gptp.domain[3].masterPorts "[\"eth0\"]"
config *.tsnSwitch*.clock.typename MultiClock
config *.tsnSwitch*.clock.numClocks 4
config *.tsnSwitch*.gptp.typename MultiDomainGptp
config *.tsnSwitch*.gptp.numDomains 4
config *.tsnSwitch1.gptp.domain[0].masterPorts "[\"eth1\"]"
config *.tsnSwitch1.gptp.domain[0].slavePort "\"eth0\""
config *.tsnSwitch1.gptp.domain[1].masterPorts "[\"eth2\"]"
config *.tsnSwitch1.gptp.domain[1].slavePort "\"eth0\""
config *.tsnSwitch1.gptp.domain[2].masterPorts "[\"eth1\"]"
config *.tsnSwitch1.gptp.domain[2].slavePort "\"eth2\""
config *.tsnSwitch1.gptp.domain[3].masterPorts "[\"eth2\"]"
config *.tsnSwitch1.gptp.domain[3].slavePort "\"eth1\""
config *.tsnSwitch2.gptp.domain[0].masterPorts "[\"eth1\", \"eth2\"]"
config *.tsnSwitch2.gptp.domain[0].slavePort "\"eth0\""
config *.tsnSwitch2.gptp.domain[1].masterPorts "[\"eth2\"]"
config *.tsnSwitch2.gptp.domain[1].slavePort "\"eth1\""
config *.tsnSwitch2.gptp.domain[2].masterPorts "[\"eth1\", \"eth2\"]"
config *.tsnSwitch2.gptp.domain[2].slavePort "\"eth0\""
config *.tsnSwitch2.gptp.domain[3].masterPorts "[\"eth0\", \"eth2\"]"
config *.tsnSwitch2.gptp.domain[3].slavePort "\"eth1\""
config *.tsnSwitch3.gptp.domain[0].masterPorts "[\"eth1\", \"eth2\"]"
config *.tsnSwitch3.gptp.domain[0].slavePort "\"eth0\""
config *.tsnSwitch3.gptp.domain[1].masterPorts "[\"eth0\", \"eth2\"]"
config *.tsnSwitch3.gptp.domain[1].slavePort "\"eth1\""
config *.tsnSwitch3.gptp.domain[2].masterPorts "[\"eth2\"]"
config *.tsnSwitch3.gptp.domain[2].slavePort "\"eth0\""
config *.tsnSwitch3.gptp.domain[3].masterPorts "[\"eth0\", \"eth2\"]"
config *.tsnSwitch3.gptp.domain[3].slavePort "\"eth1\""
config *.tsnSwitch4.gptp.domain[0].masterPorts "[\"eth0\", \"eth2\"]"
config *.tsnSwitch4.gptp.domain[0].slavePort "\"eth1\""
config *.tsnSwitch4.gptp.domain[1].masterPorts "[\"eth0\", \"eth1\"]"
config *.tsnSwitch4.gptp.domain[1].slavePort "\"eth2\""
config *.tsnSwitch4.gptp.domain[2].masterPorts "[\"eth2\"]"
config *.tsnSwitch4.gptp.domain[2].slavePort "\"eth0\""
config *.tsnSwitch4.gptp.domain[3].masterPorts "[\"eth1\"]"
config *.tsnSwitch4.gptp.domain[3].slavePort "\"eth0\""
config *.tsnSwitch5.gptp.domain[0].masterPorts "[\"eth1\", \"eth2\"]"
config *.tsnSwitch5.gptp.domain[0].slavePort "\"eth0\""
config *.tsnSwitch5.gptp.domain[1].masterPorts "[\"eth0\", \"eth2\"]"
config *.tsnSwitch5.gptp.domain[1].slavePort "\"eth1\""
config *.tsnSwitch5.gptp.domain[2].masterPorts "[\"eth1\", \"eth2\"]"
config *.tsnSwitch5.gptp.domain[2].slavePort "\"eth0\""
config *.tsnSwitch5.gptp.domain[3].masterPorts "[\"eth2\"]"
config *.tsnSwitch5.gptp.domain[3].slavePort "\"eth1\""
config *.tsnSwitch6.gptp.domain[0].masterPorts "[\"eth2\"]"
config *.tsnSwitch6.gptp.domain[0].slavePort "\"eth0\""
config *.tsnSwitch6.gptp.domain[1].masterPorts "[\"eth0\", \"eth2\"]"
config *.tsnSwitch6.gptp.domain[1].slavePort "\"eth1\""
config *.tsnSwitch6.gptp.domain[2].masterPorts "[\"eth1\", \"eth2\"]"
config *.tsnSwitch6.gptp.domain[2].slavePort "\"eth0\""
config *.tsnSwitch6.gptp.domain[3].masterPorts "[\"eth0\", \"eth2\"]"
config *.tsnSwitch6.gptp.domain[3].slavePort "\"eth1\""
config *.tsnDevice*.clock.typename MultiClock
config *.tsnDevice*.clock.numClocks 4
config *.tsnDevice*.gptp.typename MultiDomainGptp
config *.tsnDevice*.gptp.numDomains 4
config *.tsnDevice1.gptp.clockModule "\"tsnDevice1.clock\""
config *.tsnDevice2.gptp.clockModule "\"tsnDevice2.clock\""
config *.tsnDevice3.gptp.clockModule "\"tsnDevice3.clock\""
config *.tsnDevice4.gptp.clockModule "\"tsnDevice4.clock\""
config *.tsnDevice*.gptp.domain[*].slavePort "\"eth0\""
config **.pdelayInitialOffset 0.1ms
config *.*.gptp.domain[0].syncInitialOffset "syncInterval * 1 / 4"
config *.*.gptp.domain[1].syncInitialOffset "syncInterval * 2 / 4"
config *.*.gptp.domain[2].syncInitialOffset "syncInterval * 3 / 4"
config *.*.gptp.domain[3].syncInitialOffset "syncInterval * 4 / 4"
config *.visualizer.typename IntegratedMultiCanvasVisualizer
config *.visualizer.numDataLinkVisualizers 4
config *.visualizer.dataLinkVisualizer[*].displayLinks true
config *.visualizer.dataLinkVisualizer[*].activityLevel "\"protocol\""
config *.visualizer.dataLinkVisualizer[0].packetFilter "expr(has(GptpSync) && GptpSync.domainNumber == 0)"
config *.visualizer.dataLinkVisualizer[1].packetFilter "expr(has(GptpSync) && GptpSync.domainNumber == 1)"
config *.visualizer.dataLinkVisualizer[2].packetFilter "expr(has(GptpSync) && GptpSync.domainNumber == 2)"
config *.visualizer.dataLinkVisualizer[3].packetFilter "expr(has(GptpSync) && GptpSync.domainNumber == 3)"
config *.visualizer.dataLinkVisualizer[0].tags "\"primary GM domain0\""
config *.visualizer.dataLinkVisualizer[1].tags "\"primary GM domain1\""
config *.visualizer.dataLinkVisualizer[2].tags "\"hot-standby GM domain0\""
config *.visualizer.dataLinkVisualizer[3].tags "\"hot-standby GM domain1\""
config *.visualizer.dataLinkVisualizer[0].lineColor "\"blue4\""
config *.visualizer.dataLinkVisualizer[1].lineColor "\"blue1\""
config *.visualizer.dataLinkVisualizer[2].lineColor "\"red4\""
config *.visualizer.dataLinkVisualizer[3].lineColor "\"red1\""
config *.tsnClock1.clock.referenceClock "\"tsnClock1.clock\""
config *.tsnClock2.clock.clock[*].referenceClock "\"tsnClock1.clock\""
config *.tsnSwitch*.clock.clock[0..1].referenceClock "\"tsnClock1.clock\""
config *.tsnDevice*.clock.clock[0..1].referenceClock "\"tsnClock1.clock\""
config *.tsnSwitch*.clock.clock[2..3].referenceClock "\"tsnClock2.clock.clock[1]\""
config *.tsnDevice*.clock.clock[2..3].referenceClock "\"tsnClock2.clock.clock[1]\""
config *.tsnSwitch*.clock.clock[*].displayStringTextFormat "\"%d\""
config *.tsnDevice*.clock.clock[*].displayStringTextFormat "\"%d\""
config *.tsnClock1.clock.displayStringTextFormat "\"time: %T\""
config *.tsnClock2.clock.clock*.displayStringTextFormat "\"time: %T\\ndiff: %d\""
config *.visualizer.numInfoVisualizers 11
config *.visualizer.infoVisualizer[0].modules "\"*.tsnClock1.clock\""
config *.visualizer.infoVisualizer[0].textColor "\"blue4\""
config *.visualizer.infoVisualizer[1].modules "\"*.tsnSwitch1.*.clock[0] or *.tsnSwitch2.*.clock[0] or *.tsnSwitch6.*.clock[0] or *.tsnDevice1.*.clock[0] or *.tsnDevice4.*.clock[0]\""
config *.visualizer.infoVisualizer[1].textColor "\"blue4\""
config *.visualizer.infoVisualizer[2].modules "\"*.tsnSwitch1.*.clock[1] or *.tsnSwitch2.*.clock[1] or *.tsnSwitch6.*.clock[1] or *.tsnDevice1.*.clock[1] or *.tsnDevice4.*.clock[1]\""
config *.visualizer.infoVisualizer[2].textColor "\"blue1\""
config *.visualizer.infoVisualizer[3].modules "\"*.tsnSwitch1.*.clock[2] or *.tsnSwitch2.*.clock[2] or *.tsnSwitch6.*.clock[2] or *.tsnDevice1.*.clock[2] or *.tsnDevice4.*.clock[2]\""
config *.visualizer.infoVisualizer[3].textColor "\"red4\""
config *.visualizer.infoVisualizer[4].modules "\"*.tsnSwitch1.*.clock[3] or *.tsnSwitch2.*.clock[3] or *.tsnSwitch6.*.clock[3] or *.tsnDevice1.*.clock[3] or *.tsnDevice4.*.clock[3]\""
config *.visualizer.infoVisualizer[4].textColor "\"red1\""
config *.visualizer.infoVisualizer[5].modules "\"*.tsnDevice2.*.clock[0] or *.tsnDevice3.*.clock[0] or *.tsnSwitch3.*.clock[0] or *.tsnSwitch4.*.clock[0] or *.tsnSwitch5.*.clock[0]\""
config *.visualizer.infoVisualizer[5].textColor "\"blue4\""
config *.visualizer.infoVisualizer[6].modules "\"*.tsnDevice2.*.clock[1] or *.tsnDevice3.*.clock[1] or *.tsnSwitch3.*.clock[1] or *.tsnSwitch4.*.clock[1] or *.tsnSwitch5.*.clock[1]\""
config *.visualizer.infoVisualizer[6].textColor "\"blue1\""
config *.visualizer.infoVisualizer[7].modules "\"*.tsnDevice2.*.clock[2] or *.tsnDevice3.*.clock[2] or *.tsnSwitch3.*.clock[2] or *.tsnSwitch4.*.clock[2] or *.tsnSwitch5.*.clock[2]\""
config *.visualizer.infoVisualizer[7].textColor "\"red4\""
config *.visualizer.infoVisualizer[8].modules "\"*.tsnDevice2.*.clock[3] or *.tsnDevice3.*.clock[3] or *.tsnSwitch3.*.clock[3] or *.tsnSwitch4.*.clock[3] or *.tsnSwitch5.*.clock[3]\""
config *.visualizer.infoVisualizer[8].textColor "\"red1\""
config *.visualizer.infoVisualizer[9].modules "\"*.tsnClock2.*.clock[0]\""
config *.visualizer.infoVisualizer[9].textColor "\"red4\""
config *.visualizer.infoVisualizer[10].modules "\"*.tsnClock2.*.clock[1]\""
config *.visualizer.infoVisualizer[10].textColor "\"red1\""
config *.visualizer.infoVisualizer[5..10].placementHint "\"bottom\""
config experiment-label RingFailover
config sim-time-limit 4s
config description abstract
config *.*.hasTimeSynchronization true
config **.tsnClock*.clock.oscillator.typename RandomDriftOscillator
config **.oscillator.changeInterval 12.5ms
config **.oscillator.driftRate "uniform(-100ppm, 100ppm)"
config **.oscillator.driftRateChange "uniform(-1ppm, 1ppm)"
config **.oscillator.driftRateChangeUpperLimit 100ppm
config **.oscillator.driftRateChangeLowerLimit -100ppm
config *.*.eth[*].bitrate 100Mbps
config *.visualizer.typename IntegratedMultiCanvasVisualizer
config *.visualizer.infoVisualizer[*].displayInfos true

par TwoMasterClocksRingGptpShowcase.tsnClock2.ethg$o[0].channel typename "\"inet.node.ethernet.EthernetLink\""
par TwoMasterClocksRingGptpShowcase.tsnClock2.ethg$o[0].channel disabled false
attr mutable ""
par TwoMasterClocksRingGptpShowcase.tsnClock2.ethg$o[0].channel delay 5e-08s
attr mutable ""
attr unit s
par TwoMasterClocksRingGptpShowcase.tsnClock2.ethg$o[0].channel datarate 0bps
attr mutable ""
attr unit bps
par TwoMasterClocksRingGptpShowcase.tsnClock2.ethg$o[0].channel ber 0
attr mutable ""
par TwoMasterClocksRingGptpShowcase.tsnClock2.ethg$o[0].channel per 0
attr mutable ""
par TwoMasterClocksRingGptpShowcase.tsnClock2.ethg$o[0].channel length 10m
attr unit m
par TwoMasterClocksRingGptpShowcase.tsnSwitch4.ethg$o[0].channel typename "\"inet.node.ethernet.EthernetLink\""
par TwoMasterClocksRingGptpShowcase.tsnSwitch4.ethg$o[0].channel disabled false
attr mutable ""
par TwoMasterClocksRingGptpShowcase.tsnSwitch4.ethg$o[0].channel delay 5e-08s
attr mutable ""
attr unit s
par TwoMasterClocksRingGptpShowcase.tsnSwitch4.ethg$o[0].channel datarate 0bps
attr mutable ""
attr unit bps
par TwoMasterClocksRingGptpShowcase.tsnSwitch4.ethg$o[0].channel ber 0
attr mutable ""
par TwoMasterClocksRingGptpShowcase.tsnSwitch4.ethg$o[0].channel per 0
attr mutable ""
par TwoMasterClocksRingGptpShowcase.tsnSwitch4.ethg$o[0].channel length 10m
attr unit m
par TwoMasterClocksRingGptpShowcase.tsnSwitch1.ethg$o[1].channel typename "\"inet.node.ethernet.EthernetLink\""
par TwoMasterClocksRingGptpShowcase.tsnSwitch1.ethg$o[1].channel disabled false
attr mutable ""
par TwoMasterClocksRingGptpShowcase.tsnSwitch1.ethg$o[1].channel delay 5e-08s
attr mutable ""
attr unit s
par TwoMasterClocksRingGptpShowcase.tsnSwitch1.ethg$o[1].channel datarate 0bps
attr mutable ""
attr unit bps
par TwoMasterClocksRingGptpShowcase.tsnSwitch1.ethg$o[1].channel ber 0
attr mutable ""
par TwoMasterClocksRingGptpShowcase.tsnSwitch1.ethg$o[1].channel per 0
attr mutable ""
par TwoMasterClocksRingGptpShowcase.tsnSwitch1.ethg$o[1].channel length 10m
attr unit m
par TwoMasterClocksRingGptpShowcase.tsnSwitch2.ethg$o[0].channel typename "\"inet.node.ethernet.EthernetLink\""
par TwoMasterClocksRingGptpShowcase.tsnSwitch2.ethg$o[0].channel disabled false
attr mutable ""
par TwoMasterClocksRingGptpShowcase.tsnSwitch2.ethg$o[0].channel delay 5e-08s
attr mutable ""
attr unit s
par TwoMasterClocksRingGptpShowcase.tsnSwitch2.ethg$o[0].channel datarate 0bps
attr mutable ""
attr unit bps
par TwoMasterClocksRingGptpShowcase.tsnSwitch2.ethg$o[0].channel ber 0
attr mutable ""
par TwoMasterClocksRingGptpShowcase.tsnSwitch2.ethg$o[0].channel per 0
attr mutable ""
par TwoMasterClocksRingGptpShowcase.tsnSwitch2.ethg$o[0].channel length 10m
attr unit m
par TwoMasterClocksRingGptpShowcase.tsnSwitch2.ethg$o[1].channel typename "\"inet.node.ethernet.EthernetLink\""
par TwoMasterClocksRingGptpShowcase.tsnSwitch2.ethg$o[1].channel disabled false
attr mutable ""
par TwoMasterClocksRingGptpShowcase.tsnSwitch2.ethg$o[1].channel delay 5e-08s
attr mutable ""
attr unit s
par TwoMasterClocksRingGptpShowcase.tsnSwitch2.ethg$o[1].channel datarate 0bps
attr mutable ""
attr unit bps
par TwoMasterClocksRingGptpShowcase.tsnSwitch2.ethg$o[1].channel ber 0
attr mutable ""
par TwoMasterClocksRingGptpShowcase.tsnSwitch2.ethg$o[1].channel per 0
attr mutable ""
par TwoMasterClocksRingGptpShowcase.tsnSwitch2.ethg$o[1].channel length 10m
attr unit m
par TwoMasterClocksRingGptpShowcase.tsnSwitch3.ethg$o[0].channel typename "\"inet.node.ethernet.EthernetLink\""
par TwoMasterClocksRingGptpShowcase.tsnSwitch3.ethg$o[0].channel disabled false
attr mutable ""
par TwoMasterClocksRingGptpShowcase.tsnSwitch3.ethg$o[0].channel delay 5e-08s
attr mutable ""
attr unit s
par TwoMasterClocksRingGptpShowcase.tsnSwitch3.ethg$o[0].channel datarate 0bps
attr mutable ""
attr unit bps
par TwoMasterClocksRingGptpShowcase.tsnSwitch3.ethg$o[0].channel ber 0
attr mutable ""
par TwoMasterClocksRingGptpShowcase.tsnSwitch3.ethg$o[0].channel per 0
attr mutable ""
par TwoMasterClocksRingGptpShowcase.tsnSwitch3.ethg$o[0].channel length 10m
attr unit m
par TwoMasterClocksRingGptpShowcase.tsnSwitch3.ethg$o[1].channel typename "\"inet.node.ethernet.EthernetLink\""
par TwoMasterClocksRingGptpShowcase.tsnSwitch3.ethg$o[1].channel disabled false
attr mutable ""
par TwoMasterClocksRingGptpShowcase.tsnSwitch3.ethg$o[1].channel delay 5e-08s
attr mutable ""
attr unit s
par TwoMasterClocksRingGptpShowcase.tsnSwitch3.ethg$o[1].channel datarate 0bps
attr mutable ""
attr unit bps
par TwoMasterClocksRingGptpShowcase.tsnSwitch3.ethg$o[1].channel ber 0
attr mutable ""
par TwoMasterClocksRingGptpShowcase.tsnSwitch3.ethg$o[1].channel per 0
attr mutable ""
par TwoMasterClocksRingGptpShowcase.tsnSwitch3.ethg$o[1].channel length 10m
attr unit m
par TwoMasterClocksRingGptpShowcase.tsnSwitch4.ethg$o[1].channel typename "\"inet.node.ethernet.EthernetLink\""
par TwoMasterClocksRingGptpShowcase.tsnSwitch4.ethg$o[1].channel disabled false
attr mutable ""
par TwoMasterClocksRingGptpShowcase.tsnSwitch4.ethg$o[1].channel delay 5e-08s
attr mutable ""
attr unit s
par TwoMasterClocksRingGptpShowcase.tsnSwitch4.ethg$o[1].channel datarate 0bps
attr mutable ""
attr unit bps
par TwoMasterClocksRingGptpShowcase.tsnSwitch4.ethg$o[1].channel ber 0
attr mutable ""
par TwoMasterClocksRingGptpShowcase.tsnSwitch4.ethg$o[1].channel per 0
attr mutable ""
par TwoMasterClocksRingGptpShowcase.tsnSwitch4.ethg$o[1].channel length 10m
attr unit m
par TwoMasterClocksRingGptpShowcase.tsnSwitch4.ethg$o[2].channel typename "\"inet.node.ethernet.EthernetLink\""
par TwoMasterClocksRingGptpShowcase.tsnSwitch4.ethg$o[2].channel disabled false
attr mutable ""
par TwoMasterClocksRingGptpShowcase.tsnSwitch4.ethg$o[2].channel delay 5e-08s
attr mutable ""
attr unit s
par TwoMasterClocksRingGptpShowcase.tsnSwitch4.ethg$o[2].channel datarate 0bps
attr mutable ""
attr unit bps
par TwoMasterClocksRingGptpShowcase.tsnSwitch4.ethg$o[2].channel ber 0
attr mutable ""
par TwoMasterClocksRingGptpShowcase.tsnSwitch4.ethg$o[2].channel per 0
attr mutable ""
par TwoMasterClocksRingGptpShowcase.tsnSwitch4.ethg$o[2].channel length 10m
attr unit m
par TwoMasterClocksRingGptpShowcase.tsnSwitch5.ethg$o[0].channel typename "\"inet.node.ethernet.EthernetLink\""
par TwoMasterClocksRingGptpShowcase.tsnSwitch5.ethg$o[0].channel disabled false
attr mutable ""
par TwoMasterClocksRingGptpShowcase.tsnSwitch5.ethg$o[0].channel delay 5e-08s
attr mutable ""
attr unit s
par TwoMasterClocksRingGptpShowcase.tsnSwitch5.ethg$o[0].channel datarate 0bps
attr mutable ""
attr unit bps
par TwoMasterClocksRingGptpShowcase.tsnSwitch5.ethg$o[0].channel ber 0
attr mutable ""
par TwoMasterClocksRingGptpShowcase.tsnSwitch5.ethg$o[0].channel per 0
attr mutable ""
par TwoMasterClocksRingGptpShowcase.tsnSwitch5.ethg$o[0].channel length 10m
attr unit m
par TwoMasterClocksRingGptpShowcase.tsnSwitch5.ethg$o[1].channel typename "\"inet.node.ethernet.EthernetLink\""
par TwoMasterClocksRingGptpShowcase.tsnSwitch5.ethg$o[1].channel disabled false
attr mutable ""
par TwoMasterClocksRingGptpShowcase.tsnSwitch5.ethg$o[1].channel delay 5e-08s
attr mutable ""
attr unit s
par TwoMasterClocksRingGptpShowcase.tsnSwitch5.ethg$o[1].channel datarate 0bps
attr mutable ""
attr unit bps
par TwoMasterClocksRingGptpShowcase.tsnSwitch5.ethg$o[1].channel ber 0
attr mutable ""
par TwoMasterClocksRingGptpShowcase.tsnSwitch5.ethg$o[1].channel per 0
attr mutable ""
par TwoMasterClocksRingGptpShowcase.tsnSwitch5.ethg$o[1].channel length 10m
attr unit m
par TwoMasterClocksRingGptpShowcase.tsnSwitch6.ethg$o[0].channel typename "\"inet.node.ethernet.EthernetLink\""
par TwoMasterClocksRingGptpShowcase.tsnSwitch6.ethg$o[0].channel disabled false
attr mutable ""
par TwoMasterClocksRingGptpShowcase.tsnSwitch6.ethg$o[0].channel delay 5e-08s
attr mutable ""
attr unit s
par TwoMasterClocksRingGptpShowcase.tsnSwitch6.ethg$o[0].channel datarate 0bps
attr mutable ""
attr unit bps
par TwoMasterClocksRingGptpShowcase.tsnSwitch6.ethg$o[0].channel ber 0
attr mutable ""
par TwoMasterClocksRingGptpShowcase.tsnSwitch6.ethg$o[0].channel per 0
attr mutable ""
par TwoMasterClocksRingGptpShowcase.tsnSwitch6.ethg$o[0].channel length 10m
attr unit m
par TwoMasterClocksRingGptpShowcase.tsnSwitch6.ethg$o[1].channel typename "\"inet.node.ethernet.EthernetLink\""
par TwoMasterClocksRingGptpShowcase.tsnSwitch6.ethg$o[1].channel disabled false
attr mutable ""
par TwoMasterClocksRingGptpShowcase.tsnSwitch6.ethg$o[1].channel delay 5e-08s
attr mutable ""
attr unit s
par TwoMasterClocksRingGptpShowcase.tsnSwitch6.ethg$o[1].channel datarate 0bps
attr mutable ""
attr unit bps
par TwoMasterClocksRingGptpShowcase.tsnSwitch6.ethg$o[1].channel ber 0
attr mutable ""
par TwoMasterClocksRingGptpShowcase.tsnSwitch6.ethg$o[1].channel per 0
attr mutable ""
par TwoMasterClocksRingGptpShowcase.tsnSwitch6.ethg$o[1].channel length 10m
attr unit m
par TwoMasterClocksRingGptpShowcase.tsnSwitch1.ethg$o[2].channel typename "\"inet.node.ethernet.EthernetLink\""
par TwoMasterClocksRingGptpShowcase.tsnSwitch1.ethg$o[2].channel disabled false
attr mutable ""
par TwoMasterClocksRingGptpShowcase.tsnSwitch1.ethg$o[2].channel delay 5e-08s
attr mutable ""
attr unit s
par TwoMasterClocksRingGptpShowcase.tsnSwitch1.ethg$o[2].channel datarate 0bps
attr mutable ""
attr unit bps
par TwoMasterClocksRingGptpShowcase.tsnSwitch1.ethg$o[2].channel ber 0
attr mutable ""
par TwoMasterClocksRingGptpShowcase.tsnSwitch1.ethg$o[2].channel per 0
attr mutable ""
par TwoMasterClocksRingGptpShowcase.tsnSwitch1.ethg$o[2].channel length 10m
attr unit m
par TwoMasterClocksRingGptpShowcase.tsnSwitch2.ethg$o[2].channel typename "\"inet.node.ethernet.EthernetLink\""
par TwoMasterClocksRingGptpShowcase.tsnSwitch2.ethg$o[2].channel disabled false
attr mutable ""
par TwoMasterClocksRingGptpShowcase.tsnSwitch2.ethg$o[2].channel delay 5e-08s
attr mutable ""
attr unit s
par TwoMasterClocksRingGptpShowcase.tsnSwitch2.ethg$o[2].channel datarate 0bps
attr mutable ""
attr unit bps
par TwoMasterClocksRingGptpShowcase.tsnSwitch2.ethg$o[2].channel ber 0
attr mutable ""
par TwoMasterClocksRingGptpShowcase.tsnSwitch2.ethg$o[2].channel per 0
attr mutable ""
par TwoMasterClocksRingGptpShowcase.tsnSwitch2.ethg$o[2].channel length 10m
attr unit m
par TwoMasterClocksRingGptpShowcase.tsnDevice1.ethg$o[0].channel typename "\"inet.node.ethernet.EthernetLink\""
par TwoMasterClocksRingGptpShowcase.tsnDevice1.ethg$o[0].channel disabled false
attr mutable ""
par TwoMasterClocksRingGptpShowcase.tsnDevice1.ethg$o[0].channel delay 5e-08s
attr mutable ""
attr unit s
par TwoMasterClocksRingGptpShowcase.tsnDevice1.ethg$o[0].channel datarate 0bps
attr mutable ""
attr unit bps
par TwoMasterClocksRingGptpShowcase.tsnDevice1.ethg$o[0].channel ber 0
attr mutable ""
par TwoMasterClocksRingGptpShowcase.tsnDevice1.ethg$o[0].channel per 0
attr mutable ""
par TwoMasterClocksRingGptpShowcase.tsnDevice1.ethg$o[0].channel length 10m
attr unit m
par TwoMasterClocksRingGptpShowcase.tsnSwitch3.ethg$o[2].channel typename "\"inet.node.ethernet.EthernetLink\""
par TwoMasterClocksRingGptpShowcase.tsnSwitch3.ethg$o[2].channel disabled false
attr mutable ""
par TwoMasterClocksRingGptpShowcase.tsnSwitch3.ethg$o[2].channel delay 5e-08s
attr mutable ""
attr unit s
par TwoMasterClocksRingGptpShowcase.tsnSwitch3.ethg$o[2].channel datarate 0bps
attr mutable ""
attr unit bps
par TwoMasterClocksRingGptpShowcase.tsnSwitch3.ethg$o[2].channel ber 0
attr mutable ""
par TwoMasterClocksRingGptpShowcase.tsnSwitch3.ethg$o[2].channel per 0
attr mutable ""
par TwoMasterClocksRingGptpShowcase.tsnSwitch3.ethg$o[2].channel length 10m
attr unit m
par TwoMasterClocksRingGptpShowcase.tsnDevice2.ethg$o[0].channel typename "\"inet.node.ethernet.EthernetLink\""
par TwoMasterClocksRingGptpShowcase.tsnDevice2.ethg$o[0].channel disabled false
attr mutable ""
par TwoMasterClocksRingGptpShowcase.tsnDevice2.ethg$o[0].channel delay 5e-08s
attr mutable ""
attr unit s
par TwoMasterClocksRingGptpShowcase.tsnDevice2.ethg$o[0].channel datarate 0bps
attr mutable ""
attr unit bps
par TwoMasterClocksRingGptpShowcase.tsnDevice2.ethg$o[0].channel ber 0
attr mutable ""
par TwoMasterClocksRingGptpShowcase.tsnDevice2.ethg$o[0].channel per 0
attr mutable ""
par TwoMasterClocksRingGptpShowcase.tsnDevice2.ethg$o[0].channel length 10m
attr unit m
par TwoMasterClocksRingGptpShowcase.tsnSwitch5.ethg$o[2].channel typename "\"inet.node.ethernet.EthernetLink\""
par TwoMasterClocksRingGptpShowcase.tsnSwitch5.ethg$o[2].channel disabled false
attr mutable ""
par TwoMasterClocksRingGptpShowcase.tsnSwitch5.ethg$o[2].channel delay 5e-08s
attr mutable ""
attr unit s
par TwoMasterClocksRingGptpShowcase.tsnSwitch5.ethg$o[2].channel datarate 0bps
attr mutable ""
attr unit bps
par TwoMasterClocksRingGptpShowcase.tsnSwitch5.ethg$o[2].channel ber 0
attr mutable ""
par TwoMasterClocksRingGptpShowcase.tsnSwitch5.ethg$o[2].channel per 0
attr mutable ""
par TwoMasterClocksRingGptpShowcase.tsnSwitch5.ethg$o[2].channel length 10m
attr unit m
par TwoMasterClocksRingGptpShowcase.tsnDevice3.ethg$o[0].channel typename "\"inet.node.ethernet.EthernetLink\""
par TwoMasterClocksRingGptpShowcase.tsnDevice3.ethg$o[0].channel disabled false
attr mutable ""
par TwoMasterClocksRingGptpShowcase.tsnDevice3.ethg$o[0].channel delay 5e-08s
attr mutable ""
attr unit s
par TwoMasterClocksRingGptpShowcase.tsnDevice3.ethg$o[0].channel datarate 0bps
attr mutable ""
attr unit bps
par TwoMasterClocksRingGptpShowcase.tsnDevice3.ethg$o[0].channel ber 0
attr mutable ""
par TwoMasterClocksRingGptpShowcase.tsnDevice3.ethg$o[0].channel per 0
attr mutable ""
par TwoMasterClocksRingGptpShowcase.tsnDevice3.ethg$o[0].channel length 10m
attr unit m
par TwoMasterClocksRingGptpShowcase.tsnSwitch6.ethg$o[2].channel typename "\"inet.node.ethernet.EthernetLink\""
par TwoMasterClocksRingGptpShowcase.tsnSwitch6.ethg$o[2].channel disabled false
attr mutable ""
par TwoMasterClocksRingGptpShowcase.tsnSwitch6.ethg$o[2].channel delay 5e-08s
attr mutable ""
attr unit s
par TwoMasterClocksRingGptpShowcase.tsnSwitch6.ethg$o[2].channel datarate 0bps
attr mutable ""
attr unit bps
par TwoMasterClocksRingGptpShowcase.tsnSwitch6.ethg$o[2].channel ber 0
attr mutable ""
par TwoMasterClocksRingGptpShowcase.tsnSwitch6.ethg$o[2].channel per 0
attr mutable ""
par TwoMasterClocksRingGptpShowcase.tsnSwitch6.ethg$o[2].channel length 10m
attr unit m
par TwoMasterClocksRingGptpShowcase.tsnDevice4.ethg$o[0].channel typename "\"inet.node.ethernet.EthernetLink\""
par TwoMasterClocksRingGptpShowcase.tsnDevice4.ethg$o[0].channel disabled false
attr mutable ""
par TwoMasterClocksRingGptpShowcase.tsnDevice4.ethg$o[0].channel delay 5e-08s
attr mutable ""
attr unit s
par TwoMasterClocksRingGptpShowcase.tsnDevice4.ethg$o[0].channel datarate 0bps
attr mutable ""
attr unit bps
par TwoMasterClocksRingGptpShowcase.tsnDevice4.ethg$o[0].channel ber 0
attr mutable ""
par TwoMasterClocksRingGptpShowcase.tsnDevice4.ethg$o[0].channel per 0
attr mutable ""
par TwoMasterClocksRingGptpShowcase.tsnDevice4.ethg$o[0].channel length 10m
attr unit m
par TwoMasterClocksRingGptpShowcase.visualizer.sceneVisualizer[0] typename "\"inet.visualizer.canvas.scene.SceneCanvasVisualizer\""
par TwoMasterClocksRingGptpShowcase.visualizer.sceneVisualizer[0] visualizationTargetModule "\"^.^\""
par TwoMasterClocksRingGptpShowcase.visualizer.sceneVisualizer[0] visualizationSubjectModule "\"^.^\""
par TwoMasterClocksRingGptpShowcase.visualizer.sceneVisualizer[0] tags "\"\""
par TwoMasterClocksRingGptpShowcase.visualizer.sceneVisualizer[0] physicalEnvironmentModule "\"physicalEnvironment\""
par TwoMasterClocksRingGptpShowcase.visualizer.sceneVisualizer[0] networkNodeVisualizerModule "\"TwoMasterClocksRingGptpShowcase.visualizer.networkNodeVisualizer[0]\""
par TwoMasterClocksRingGptpShowcase.visualizer.sceneVisualizer[0] axisLength "nan m"
attr mutable ""
attr unit m
par TwoMasterClocksRingGptpShowcase.visualizer.sceneVisualizer[0] animationSpeed 0
par TwoMasterClocksRingGptpShowcase.visualizer.sceneVisualizer[0] sceneMinX "nan m"
attr unit m
par TwoMasterClocksRingGptpShowcase.visualizer.sceneVisualizer[0] sceneMinY "nan m"
attr unit m
par TwoMasterClocksRingGptpShowcase.visualizer.sceneVisualizer[0] sceneMinZ "nan m"
attr unit m
par TwoMasterClocksRingGptpShowcase.visualizer.sceneVisualizer[0] sceneMaxX "nan m"
attr unit m
par TwoMasterClocksRingGptpShowcase.visualizer.sceneVisualizer[0] sceneMaxY "nan m"
attr unit m
par TwoMasterClocksRingGptpShowcase.visualizer.sceneVisualizer[0] sceneMaxZ "nan m"
attr unit m
par TwoMasterClocksRingGptpShowcase.visualizer.sceneVisualizer[0] zIndex 0
par TwoMasterClocksRingGptpShowcase.visualizer.sceneVisualizer[0] viewAngle "\"x right y down z out\""
attr mutable ""
par TwoMasterClocksRingGptpShowcase.visualizer.sceneVisualizer[0] viewScale "\"1 1\""
attr mutable ""
par TwoMasterClocksRingGptpShowcase.visualizer.sceneVisualizer[0] viewTranslation "\"0 0\""
attr mutable ""
par TwoMasterClocksRingGptpShowcase.visualizer.sceneVisualizer[0] descriptionFigure "\"\""
par TwoMasterClocksRingGptpShowcase.visualizer.physicalEnvironmentVisualizer[0] typename "\"inet.visualizer.canvas.environment.PhysicalEnvironmentCanvasVisualizer\""
par TwoMasterClocksRingGptpShowcase.visualizer.physicalEnvironmentVisualizer[0] visualizationTargetModule "\"^.^\""
par TwoMasterClocksRingGptpShowcase.visualizer.physicalEnvironmentVisualizer[0] visualizationSubjectModule "\"^.^\""
par TwoMasterClocksRingGptpShowcase.visualizer.physicalEnvironmentVisualizer[0] tags "\"\""
par TwoMasterClocksRingGptpShowcase.visualizer.physicalEnvironmentVisualizer[0] physicalEnvironmentModule "\"physicalEnvironment\""
par TwoMasterClocksRingGptpShowcase.visualizer.physicalEnvironmentVisualizer[0] displayObjects true
par TwoMasterClocksRingGptpShowcase.visualizer.physicalEnvironmentVisualizer[0] zIndex 0
par TwoMasterClocksRingGptpShowcase.visualizer.networkNodeVisualizer[0] typename "\"inet.visualizer.canvas.scene.NetworkNodeCanvasVisualizer\""
par TwoMasterClocksRingGptpShowcase.visualizer.networkNodeVisualizer[0] visualizationTargetModule "\"^.^\""
par TwoMasterClocksRingGptpShowcase.visualizer.networkNodeVisualizer[0] visualizationSubjectModule "\"^.^\""
par TwoMasterClocksRingGptpShowcase.visualizer.networkNodeVisualizer[0] tags "\"\""
par TwoMasterClocksRingGptpShowcase.visualizer.networkNodeVisualizer[0] nodeFilter "\"*\""
attr mutable ""
par TwoMasterClocksRingGptpShowcase.visualizer.networkNodeVisualizer[0] annotationSpacing 4
par TwoMasterClocksRingGptpShowcase.visualizer.networkNodeVisualizer[0] placementPenalty 10
par TwoMasterClocksRingGptpShowcase.visualizer.networkNodeVisualizer[0] zIndex 0
par TwoMasterClocksRingGptpShowcase.visualizer.networkConnectionVisualizer[0] typename "\"inet.visualizer.canvas.scene.NetworkConnectionCanvasVisualizer\""
par TwoMasterClocksRingGptpShowcase.visualizer.networkConnectionVisualizer[0] visualizationTargetModule "\"^.^\""
par TwoMasterClocksRingGptpShowcase.visualizer.networkConnectionVisualizer[0] visualizationSubjectModule "\"^.^\""
par TwoMasterClocksRingGptpShowcase.visualizer.networkConnectionVisualizer[0] tags "\"\""
par TwoMasterClocksRingGptpShowcase.visualizer.networkConnectionVisualizer[0] displayNetworkConnections true
par TwoMasterClocksRingGptpShowcase.visualizer.networkConnectionVisualizer[0] nodeFilter "\"\""
attr mutable ""
par TwoMasterClocksRingGptpShowcase.visualizer.networkConnectionVisualizer[0] lineColor "\"black\""
par TwoMasterClocksRingGptpShowcase.visualizer.networkConnectionVisualizer[0] lineStyle "\"solid\""
par TwoMasterClocksRingGptpShowcase.visualizer.networkConnectionVisualizer[0] lineWidth 1
par TwoMasterClocksRingGptpShowcase.visualizer.networkConnectionVisualizer[0] zIndex 0
par TwoMasterClocksRingGptpShowcase.visualizer.mobilityVisualizer[0] typename "\"inet.visualizer.canvas.mobility.MobilityCanvasVisualizer\""
par TwoMasterClocksRingGptpShowcase.visualizer.mobilityVisualizer[0] visualizationTargetModule "\"^.^\""
par TwoMasterClocksRingGptpShowcase.visualizer.mobilityVisualizer[0] visualizationSubjectModule "\"^.^\""
par TwoMasterClocksRingGptpShowcase.visualizer.mobilityVisualizer[0] tags "\"\""
par TwoMasterClocksRingGptpShowcase.visualizer.mobilityVisualizer[0] networkNodeVisualizerModule "\"TwoMasterClocksRingGptpShowcase.visualizer.networkNodeVisualizer[0]\""
par TwoMasterClocksRingGptpShowcase.visualizer.mobilityVisualizer[0] displayMobility true
par TwoMasterClocksRingGptpShowcase.visualizer.mobilityVisualizer[0] animationSpeed 0
par TwoMasterClocksRingGptpShowcase.visualizer.mobilityVisualizer[0] moduleFilter "\"**.mobility\""
attr mutable ""
par TwoMasterClocksRingGptpShowcase.visualizer.mobilityVisualizer[0] displayPositions false
par TwoMasterClocksRingGptpShowcase.visualizer.mobilityVisualizer[0] positionCircleRadius 4
par TwoMasterClocksRingGptpShowcase.visualizer.mobilityVisualizer[0] positionCircleLineWidth 1
par TwoMasterClocksRingGptpShowcase.visualizer.mobilityVisualizer[0] positionCircleLineColor "\"dark\""
par TwoMasterClocksRingGptpShowcase.visualizer.mobilityVisualizer[0] positionCircleFillColor "\"dark\""
par TwoMasterClocksRingGptpShowcase.visualizer.mobilityVisualizer[0] displayOrientations false
par TwoMasterClocksRingGptpShowcase.visualizer.mobilityVisualizer[0] orientationPieRadius 32
par TwoMasterClocksRingGptpShowcase.visualizer.mobilityVisualizer[0] orientationPieSize 0.2
par TwoMasterClocksRingGptpShowcase.visualizer.mobilityVisualizer[0] orientationPieOpacity 0.25
par TwoMasterClocksRingGptpShowcase.visualizer.mobilityVisualizer[0] orientationLineColor "\"black\""
par TwoMasterClocksRingGptpShowcase.visualizer.mobilityVisualizer[0] orientationLineStyle "\"solid\""
par TwoMasterClocksRingGptpShowcase.visualizer.mobilityVisualizer[0] orientationLineWidth 1
par TwoMasterClocksRingGptpShowcase.visualizer.mobilityVisualizer[0] orientationFillColor "\"blue\""
par TwoMasterClocksRingGptpShowcase.visualizer.mobilityVisualizer[0] displayVelocities false
par TwoMasterClocksRingGptpShowcase.visualizer.mobilityVisualizer[0] velocityArrowScale 1
par TwoMasterClocksRingGptpShowcase.visualizer.mobilityVisualizer[0] velocityLineColor "\"black\""
par TwoMasterClocksRingGptpShowcase.visualizer.mobilityVisualizer[0] velocityLineStyle "\"solid\""
par TwoMasterClocksRingGptpShowcase.visualizer.mobilityVisualizer[0] velocityLineWidth 1
par TwoMasterClocksRingGptpShowcase.visualizer.mobilityVisualizer[0] displayMovementTrails false
par TwoMasterClocksRingGptpShowcase.visualizer.mobilityVisualizer[0] movementTrailLineColor "\"dark\""
par TwoMasterClocksRingGptpShowcase.visualizer.mobilityVisualizer[0] movementTrailLineStyle "\"solid\""
par TwoMasterClocksRingGptpShowcase.visualizer.mobilityVisualizer[0] movementTrailLineWidth 1
par TwoMasterClocksRingGptpShowcase.visualizer.mobilityVisualizer[0] trailLength 100
par TwoMasterClocksRingGptpShowcase.visualizer.mobilityVisualizer[0] zIndex 0
par TwoMasterClocksRingGptpShowcase.visualizer.statisticVisualizer[0] typename "\"inet.visualizer.canvas.common.StatisticCanvasVisualizer\""
par TwoMasterClocksRingGptpShowcase.visualizer.statisticVisualizer[0] visualizationTargetModule "\"^.^\""
par TwoMasterClocksRingGptpShowcase.visualizer.statisticVisualizer[0] visualizationSubjectModule "\"^.^\""
par TwoMasterClocksRingGptpShowcase.visualizer.statisticVisualizer[0] tags "\"\""
par TwoMasterClocksRingGptpShowcase.visualizer.statisticVisualizer[0] networkNodeVisualizerModule "\"TwoMasterClocksRingGptpShowcase.visualizer.networkNodeVisualizer[0]\""
par TwoMasterClocksRingGptpShowcase.visualizer.statisticVisualizer[0] displayStatistics true
par TwoMasterClocksRingGptpShowcase.visualizer.statisticVisualizer[0] signalName "\"\""
par TwoMasterClocksRingGptpShowcase.visualizer.statisticVisualizer[0] statisticName "\"\""
par TwoMasterClocksRingGptpShowcase.visualizer.statisticVisualizer[0] statisticUnit "\"\""
par TwoMasterClocksRingGptpShowcase.visualizer.statisticVisualizer[0] statisticExpression "\"\""
par TwoMasterClocksRingGptpShowcase.visualizer.statisticVisualizer[0] sourceFilter "\"**\""
attr mutable ""
par TwoMasterClocksRingGptpShowcase.visualizer.statisticVisualizer[0] format "\"%n: %v %u\""
attr mutable ""
par TwoMasterClocksRingGptpShowcase.visualizer.statisticVisualizer[0] unit "\"\""
par TwoMasterClocksRingGptpShowcase.visualizer.statisticVisualizer[0] font "\"<default>\""
par TwoMasterClocksRingGptpShowcase.visualizer.statisticVisualizer[0] textColor "\"black\""
par TwoMasterClocksRingGptpShowcase.visualizer.statisticVisualizer[0] backgroundColor "\"white\""
par TwoMasterClocksRingGptpShowcase.visualizer.statisticVisualizer[0] opacity 1
par TwoMasterClocksRingGptpShowcase.visualizer.statisticVisualizer[0] placementHint "\"top\""
par TwoMasterClocksRingGptpShowcase.visualizer.statisticVisualizer[0] placementPriority 0
par TwoMasterClocksRingGptpShowcase.visualizer.statisticVisualizer[0] zIndex 10
par TwoMasterClocksRingGptpShowcase.visualizer.statisticVisualizer[0] propertyName "\"\""
par TwoMasterClocksRingGptpShowcase.visualizer.statisticVisualizer[0] propertyIndex "\"\""
par TwoMasterClocksRingGptpShowcase.visualizer.infoVisualizer[0] typename "\"inet.visualizer.canvas.common.InfoCanvasVisualizer\""
par TwoMasterClocksRingGptpShowcase.visualizer.infoVisualizer[0] visualizationTargetModule "\"^.^\""
par TwoMasterClocksRingGptpShowcase.visualizer.infoVisualizer[0] visualizationSubjectModule "\"^.^\""
par TwoMasterClocksRingGptpShowcase.visualizer.infoVisualizer[0] tags "\"\""
par TwoMasterClocksRingGptpShowcase.visualizer.infoVisualizer[0] networkNodeVisualizerModule "\"TwoMasterClocksRingGptpShowcase.visualizer.networkNodeVisualizer[0]\""
par TwoMasterClocksRingGptpShowcase.visualizer.infoVisualizer[0] displayInfos true
par TwoMasterClocksRingGptpShowcase.visualizer.infoVisualizer[0] modules "\"*.tsnClock1.clock\""
attr mutable ""
par TwoMasterClocksRingGptpShowcase.visualizer.infoVisualizer[0] format "\"%t\""
attr mutable ""
par TwoMasterClocksRingGptpShowcase.visualizer.infoVisualizer[0] font "\"<default>\""
par TwoMasterClocksRingGptpShowcase.visualizer.infoVisualizer[0] textColor "\"blue4\""
par TwoMasterClocksRingGptpShowcase.visualizer.infoVisualizer[0] backgroundColor "\"white\""
par TwoMasterClocksRingGptpShowcase.visualizer.infoVisualizer[0] opacity 1
par TwoMasterClocksRingGptpShowcase.visualizer.infoVisualizer[0] placementHint "\"top\""
par TwoMasterClocksRingGptpShowcase.visualizer.infoVisualizer[0] placementPriority 0
par TwoMasterClocksRingGptpShowcase.visualizer.infoVisualizer[0] zIndex 10
par TwoMasterClocksRingGptpShowcase.visualizer.infoVisualizer[1] typename "\"inet.visualizer.canvas.common.InfoCanvasVisualizer\""
par TwoMasterClocksRingGptpShowcase.visualizer.infoVisualizer[1] visualizationTargetModule "\"^.^\""
par TwoMasterClocksRingGptpShowcase.visualizer.infoVisualizer[1] visualizationSubjectModule "\"^.^\""
par TwoMasterClocksRingGptpShowcase.visualizer.infoVisualizer[1] tags "\"\""
par TwoMasterClocksRingGptpShowcase.visualizer.infoVisualizer[1] networkNodeVisualizerModule "\"TwoMasterClocksRingGptpShowcase.visualizer.networkNodeVisualizer[0]\""
par TwoMasterClocksRingGptpShowcase.visualizer.infoVisualizer[1] displayInfos true
par TwoMasterClocksRingGptpShowcase.visualizer.infoVisualizer[1] modules "\"*.tsnSwitch1.*.clock[0] or *.tsnSwitch2.*.clock[0] or *.tsnSwitch6.*.clock[0] or *.tsnDevice1.*.clock[0] or *.tsnDevice4.*.clock[0]\""
attr mutable ""
par TwoMasterClocksRingGptpShowcase.visualizer.infoVisualizer[1] format "\"%t\""
attr mutable ""
par TwoMasterClocksRingGptpShowcase.visualizer.infoVisualizer[1] font "\"<default>\""
par TwoMasterClocksRingGptpShowcase.visualizer.infoVisualizer[1] textColor "\"blue4\""
par TwoMasterClocksRingGptpShowcase.visualizer.infoVisualizer[1] backgroundColor "\"white\""
par TwoMasterClocksRingGptpShowcase.visualizer.infoVisualizer[1] opacity 1
par TwoMasterClocksRingGptpShowcase.visualizer.infoVisualizer[1] placementHint "\"top\""
par TwoMasterClocksRingGptpShowcase.visualizer.infoVisualizer[1] placementPriority 0
par TwoMasterClocksRingGptpShowcase.visualizer.infoVisualizer[1] zIndex 10
par TwoMasterClocksRingGptpShowcase.visualizer.infoVisualizer[2] typename "\"inet.visualizer.canvas.common.InfoCanvasVisualizer\""
par TwoMasterClocksRingGptpShowcase.visualizer.infoVisualizer[2] visualizationTargetModule "\"^.^\""
par TwoMasterClocksRingGptpShowcase.visualizer.infoVisualizer[2] visualizationSubjectModule "\"^.^\""
par TwoMasterClocksRingGptpShowcase.visualizer.infoVisualizer[2] tags "\"\""
par TwoMasterClocksRingGptpShowcase.visualizer.infoVisualizer[2] networkNodeVisualizerModule "\"TwoMasterClocksRingGptpShowcase.visualizer.networkNodeVisualizer[0]\""
par TwoMasterClocksRingGptpShowcase.visualizer.infoVisualizer[2] displayInfos true
par TwoMasterClocksRingGptpShowcase.visualizer.infoVisualizer[2] modules "\"*.tsnSwitch1.*.clock[1] or *.tsnSwitch2.*.clock[1] or *.tsnSwitch6.*.clock[1] or *.tsnDevice1.*.clock[1] or *.tsnDevice4.*.clock[1]\""
attr mutable ""
par TwoMasterClocksRingGptpShowcase.visualizer.infoVisualizer[2] format "\"%t\""
attr mutable ""
par TwoMasterClocksRingGptpShowcase.visualizer.infoVisualizer[2] font "\"<default>\""
par TwoMasterClocksRingGptpShowcase.visualizer.infoVisualizer[2] textColor "\"blue1\""
par TwoMasterClocksRingGptpShowcase.visualizer.infoVisualizer[2] backgroundColor "\"white\""
par TwoMasterClocksRingGptpShowcase.visualizer.infoVisualizer[2] opacity 1
par TwoMasterClocksRingGptpShowcase.visualizer.infoVisualizer[2] placementHint "\"top\""
par TwoMasterClocksRingGptpShowcase.visualizer.infoVisualizer[2] placementPriority 0
par TwoMasterClocksRingGptpShowcase.visualizer.infoVisualizer[2] zIndex 10
par TwoMasterClocksRingGptpShowcase.visualizer.infoVisualizer[3] typename "\"inet.visualizer.canvas.common.InfoCanvasVisualizer\""
par TwoMasterClocksRingGptpShowcase.visualizer.infoVisualizer[3] visualizationTargetModule "\"^.^\""
par TwoMasterClocksRingGptpShowcase.visualizer.infoVisualizer[3] visualizationSubjectModule "\"^.^\""
par TwoMasterClocksRingGptpShowcase.visualizer.infoVisualizer[3] tags "\"\""
par TwoMasterClocksRingGptpShowcase.visualizer.infoVisualizer[3] networkNodeVisualizerModule "\"TwoMasterClocksRingGptpShowcase.visualizer.networkNodeVisualizer[0]\""
par TwoMasterClocksRingGptpShowcase.visualizer.infoVisualizer[3] displayInfos true
par TwoMasterClocksRingGptpShowcase.visualizer.infoVisualizer[3] modules "\"*.tsnSwitch1.*.clock[2] or *.tsnSwitch2.*.clock[2] or *.tsnSwitch6.*.clock[2] or *.tsnDevice1.*.clock[2] or *.tsnDevice4.*.clock[2]\""
attr mutable ""
par TwoMasterClocksRingGptpShowcase.visualizer.infoVisualizer[3] format "\"%t\""
attr mutable ""
par TwoMasterClocksRingGptpShowcase.visualizer.infoVisualizer[3] font "\"<default>\""
par TwoMasterClocksRingGptpShowcase.visualizer.infoVisualizer[3] textColor "\"red4\""
par TwoMasterClocksRingGptpShowcase.visualizer.infoVisualizer[3] backgroundColor "\"white\""
par TwoMasterClocksRingGptpShowcase.visualizer.infoVisualizer[3] opacity 1
par TwoMasterClocksRingGptpShowcase.visualizer.infoVisualizer[3] placementHint "\"top\""
par TwoMasterClocksRingGptpShowcase.visualizer.infoVisualizer[3] placementPriority 0
par TwoMasterClocksRingGptpShowcase.visualizer.infoVisualizer[3] zIndex 10
par TwoMasterClocksRingGptpShowcase.visualizer.infoVisualizer[4] typename "\"inet.visualizer.canvas.common.InfoCanvasVisualizer\""
par TwoMasterClocksRingGptpShowcase.visualizer.infoVisualizer[4] visualizationTargetModule "\"^.^\""
par TwoMasterClocksRingGptpShowcase.visualizer.infoVisualizer[4] visualizationSubjectModule "\"^.^\""
par TwoMasterClocksRingGptpShowcase.visualizer.infoVisualizer[4] tags "\"\""
par TwoMasterClocksRingGptpShowcase.visualizer.infoVisualizer[4] networkNodeVisualizerModule "\"TwoMasterClocksRingGptpShowcase.visualizer.networkNodeVisualizer[0]\""
par TwoMasterClocksRingGptpShowcase.visualizer.infoVisualizer[4] displayInfos true
par TwoMasterClocksRingGptpShowcase.visualizer.infoVisualizer[4] modules "\"*.tsnSwitch1.*.clock[3] or *.tsnSwitch2.*.clock[3] or *.tsnSwitch6.*.clock[3] or *.tsnDevice1.*.clock[3] or *.tsnDevice4.*.clock[3]\""
attr mutable ""
par TwoMasterClocksRingGptpShowcase.visualizer.infoVisualizer[4] format "\"%t\""
attr mutable ""
par TwoMasterClocksRingGptpShowcase.visualizer.infoVisualizer[4] font "\"<default>\""
par TwoMasterClocksRingGptpShowcase.visualizer.infoVisualizer[4] textColor "\"red1\""
par TwoMasterClocksRingGptpShowcase.visualizer.infoVisualizer[4] backgroundColor "\"white\""
par TwoMasterClocksRingGptpShowcase.visualizer.infoVisualizer[4] opacity 1
par TwoMasterClocksRingGptpShowcase.visualizer.infoVisualizer[4] placementHint "\"top\""
par TwoMasterClocksRingGptpShowcase.visualizer.infoVisualizer[4] placementPriority 0
par TwoMasterClocksRingGptpShowcase.visualizer.infoVisualizer[4] zIndex 10
par TwoMasterClocksRingGptpShowcase.visualizer.infoVisualizer[5] typename "\"inet.visualizer.canvas.common.InfoCanvasVisualizer\""
par TwoMasterClocksRingGptpShowcase.visualizer.infoVisualizer[5] visualizationTargetModule "\"^.^\""
par TwoMasterClocksRingGptpShowcase.visualizer.infoVisualizer[5] visualizationSubjectModule "\"^.^\""
par TwoMasterClocksRingGptpShowcase.visualizer.infoVisualizer[5] tags "\"\""
par TwoMasterClocksRingGptpShowcase.visualizer.infoVisualizer[5] networkNodeVisualizerModule "\"TwoMasterClocksRingGptpShowcase.visualizer.networkNodeVisualizer[0]\""
par TwoMasterClocksRingGptpShowcase.visualizer.infoVisualizer[5] displayInfos true
par TwoMasterClocksRingGptpShowcase.visualizer.infoVisualizer[5] modules "\"*.tsnDevice2.*.clock[0] or *.tsnDevice3.*.clock[0] or *.tsnSwitch3.*.clock[0] or *.tsnSwitch4.*.clock[0] or *.tsnSwitch5.*.clock[0]\""
attr mutable ""
par TwoMasterClocksRingGptpShowcase.visualizer.infoVisualizer[5] format "\"%t\""
attr mutable ""
par TwoMasterClocksRingGptpShowcase.visualizer.infoVisualizer[5] font "\"<default>\""
par TwoMasterClocksRingGptpShowcase.visualizer.infoVisualizer[5] textColor "\"blue4\""
par TwoMasterClocksRingGptpShowcase.visualizer.infoVisualizer[5] backgroundColor "\"white\""
par TwoMasterClocksRingGptpShowcase.visualizer.infoVisualizer[5] opacity 1
par TwoMasterClocksRingGptpShowcase.visualizer.infoVisualizer[5] placementHint "\"bottom\""
par TwoMasterClocksRingGptpShowcase.visualizer.infoVisualizer[5] placementPriority 0
par TwoMasterClocksRingGptpShowcase.visualizer.infoVisualizer[5] zIndex 10
par TwoMasterClocksRingGptpShowcase.visualizer.infoVisualizer[6] typename "\"inet.visualizer.canvas.common.InfoCanvasVisualizer\""
par TwoMasterClocksRingGptpShowcase.visualizer.infoVisualizer[6] visualizationTargetModule "\"^.^\""
par TwoMasterClocksRingGptpShowcase.visualizer.infoVisualizer[6] visualizationSubjectModule "\"^.^\""
par TwoMasterClocksRingGptpShowcase.visualizer.infoVisualizer[6] tags "\"\""
par TwoMasterClocksRingGptpShowcase.visualizer.infoVisualizer[6] networkNodeVisualizerModule "\"TwoMasterClocksRingGptpShowcase.visualizer.networkNodeVisualizer[0]\""
par TwoMasterClocksRingGptpShowcase.visualizer.infoVisualizer[6] displayInfos true
par TwoMasterClocksRingGptpShowcase.visualizer.infoVisualizer[6] modules "\"*.tsnDevice2.*.clock[1] or *.tsnDevice3.*.clock[1] or *.tsnSwitch3.*.clock[1] or *.tsnSwitch4.*.clock[1] or *.tsnSwitch5.*.clock[1]\""
attr mutable ""
par TwoMasterClocksRingGptpShowcase.visualizer.infoVisualizer[6] format "\"%t\""
attr mutable ""
par TwoMasterClocksRingGptpShowcase.visualizer.infoVisualizer[6] font "\"<default>\""
par TwoMasterClocksRingGptpShowcase.visualizer.infoVisualizer[6] textColor "\"blue1\""
par TwoMasterClocksRingGptpShowcase.visualizer.infoVisualizer[6] backgroundColor "\"white\""
par TwoMasterClocksRingGptpShowcase.visualizer.infoVisualizer[6] opacity 1
par TwoMasterClocksRingGptpShowcase.visualizer.infoVisualizer[6] placementHint "\"bottom\""
par TwoMasterClocksRingGptpShowcase.visualizer.infoVisualizer[6] placementPriority 0
par TwoMasterClocksRingGptpShowcase.visualizer.infoVisualizer[6] zIndex 10
par TwoMasterClocksRingGptpShowcase.visualizer.infoVisualizer[7] typename "\"inet.visualizer.canvas.common.InfoCanvasVisualizer\""
par TwoMasterClocksRingGptpShowcase.visualizer.infoVisualizer[7] visualizationTargetModule "\"^.^\""
par TwoMasterClocksRingGptpShowcase.visualizer.infoVisualizer[7] visualizationSubjectModule "\"^.^\""
par TwoMasterClocksRingGptpShowcase.visualizer.infoVisualizer[7] tags "\"\""
par TwoMasterClocksRingGptpShowcase.visualizer.infoVisualizer[7] networkNodeVisualizerModule "\"TwoMasterClocksRingGptpShowcase.visualizer.networkNodeVisualizer[0]\""
par TwoMasterClocksRingGptpShowcase.visualizer.infoVisualizer[7] displayInfos true
par TwoMasterClocksRingGptpShowcase.visualizer.infoVisualizer[7] modules "\"*.tsnDevice2.*.clock[2] or *.tsnDevice3.*.clock[2] or *.tsnSwitch3.*.clock[2] or *.tsnSwitch4.*.clock[2] or *.tsnSwitch5.*.clock[2]\""
attr mutable ""
par TwoMasterClocksRingGptpShowcase.visualizer.infoVisualizer[7] format "\"%t\""
attr mutable ""
par TwoMasterClocksRingGptpShowcase.visualizer.infoVisualizer[7] font "\"<default>\""
par TwoMasterClocksRingGptpShowcase.visualizer.infoVisualizer[7] textColor "\"red4\""
par TwoMasterClocksRingGptpShowcase.visualizer.infoVisualizer[7] backgroundColor "\"white\""
par TwoMasterClocksRingGptpShowcase.visualizer.infoVisualizer[7] opacity 1
par TwoMasterClocksRingGptpShowcase.visualizer.infoVisualizer[7] placementHint "\"bottom\""
par TwoMasterClocksRingGptpShowcase.visualizer.infoVisualizer[7] placementPriority 0
par TwoMasterClocksRingGptpShowcase.visualizer.infoVisualizer[7] zIndex 10
par TwoMasterClocksRingGptpShowcase.visualizer.infoVisualizer[8] typename "\"inet.visualizer.canvas.common.InfoCanvasVisualizer\""
par TwoMasterClocksRingGptpShowcase.visualizer.infoVisualizer[8] visualizationTargetModule "\"^.^\""
par TwoMasterClocksRingGptpShowcase.visualizer.infoVisualizer[8] visualizationSubjectModule "\"^.^\""
par TwoMasterClocksRingGptpShowcase.visualizer.infoVisualizer[8] tags "\"\""
par TwoMasterClocksRingGptpShowcase.visualizer.infoVisualizer[8] networkNodeVisualizerModule "\"TwoMasterClocksRingGptpShowcase.visualizer.networkNodeVisualizer[0]\""
par TwoMasterClocksRingGptpShowcase.visualizer.infoVisualizer[8] displayInfos true
par TwoMasterClocksRingGptpShowcase.visualizer.infoVisualizer[8] modules "\"*.tsnDevice2.*.clock[3] or *.tsnDevice3.*.clock[3] or *.tsnSwitch3.*.clock[3] or *.tsnSwitch4.*.clock[3] or *.tsnSwitch5.*.clock[3]\""
attr mutable ""
par TwoMasterClocksRingGptpShowcase.visualizer.infoVisualizer[8] format "\"%t\""
attr mutable ""
par TwoMasterClocksRingGptpShowcase.visualizer.infoVisualizer[8] font "\"<default>\""
par TwoMasterClocksRingGptpShowcase.visualizer.infoVisualizer[8] textColor "\"red1\""
par TwoMasterClocksRingGptpShowcase.visualizer.infoVisualizer[8] backgroundColor "\"white\""
par TwoMasterClocksRingGptpShowcase.visualizer.infoVisualizer[8] opacity 1
par TwoMasterClocksRingGptpShowcase.visualizer.infoVisualizer[8] placementHint "\"bottom\""
par TwoMasterClocksRingGptpShowcase.visualizer.infoVisualizer[8] placementPriority 0
par TwoMasterClocksRingGptpShowcase.visualizer.infoVisualizer[8] zIndex 10
par TwoMasterClocksRingGptpShowcase.visualizer.infoVisualizer[9] typename "\"inet.visualizer.canvas.common.InfoCanvasVisualizer\""
par TwoMasterClocksRingGptpShowcase.visualizer.infoVisualizer[9] visualizationTargetModule "\"^.^\""
par TwoMasterClocksRingGptpShowcase.visualizer.infoVisualizer[9] visualizationSubjectModule "\"^.^\""
par TwoMasterClocksRingGptpShowcase.visualizer.infoVisualizer[9] tags "\"\""
par TwoMasterClocksRingGptpShowcase.visualizer.infoVisualizer[9] networkNodeVisualizerModule "\"TwoMasterClocksRingGptpShowcase.visualizer.networkNodeVisualizer[0]\""
par TwoMasterClocksRingGptpShowcase.visualizer.infoVisualizer[9] displayInfos true
par TwoMasterClocksRingGptpShowcase.visualizer.infoVisualizer[9] modules "\"*.tsnClock2.*.clock[0]\""
attr mutable ""
par TwoMasterClocksRingGptpShowcase.visualizer.infoVisualizer[9] format "\"%t\""
attr mutable ""
par TwoMasterClocksRingGptpShowcase.visualizer.infoVisualizer[9] font "\"<default>\""
par TwoMasterClocksRingGptpShowcase.visualizer.infoVisualizer[9] textColor "\"red4\""
par TwoMasterClocksRingGptpShowcase.visualizer.infoVisualizer[9] backgroundColor "\"white\""
par TwoMasterClocksRingGptpShowcase.visualizer.infoVisualizer[9] opacity 1
par TwoMasterClocksRingGptpShowcase.visualizer.infoVisualizer[9] placementHint "\"bottom\""
par TwoMasterClocksRingGptpShowcase.visualizer.infoVisualizer[9] placementPriority 0
par TwoMasterClocksRingGptpShowcase.visualizer.infoVisualizer[9] zIndex 10
par TwoMasterClocksRingGptpShowcase.visualizer.infoVisualizer[10] typename "\"inet.visualizer.canvas.common.InfoCanvasVisualizer\""
par TwoMasterClocksRingGptpShowcase.visualizer.infoVisualizer[10] visualizationTargetModule "\"^.^\""
par TwoMasterClocksRingGptpShowcase.visualizer.infoVisualizer[10] visualizationSubjectModule "\"^.^\""
par TwoMasterClocksRingGptpShowcase.visualizer.infoVisualizer[10] tags "\"\""
par TwoMasterClocksRingGptpShowcase.visualizer.infoVisualizer[10] networkNodeVisualizerModule "\"TwoMasterClocksRingGptpShowcase.visualizer.networkNodeVisualizer[0]\""
par TwoMasterClocksRingGptpShowcase.visualizer.infoVisualizer[10] displayInfos true
par TwoMasterClocksRingGptpShowcase.visualizer.infoVisualizer[10] modules "\"*.tsnClock2.*.clock[1]\""
attr mutable ""
par TwoMasterClocksRingGptpShowcase.visualizer.infoVisualizer[10] format "\"%t\""
attr mutable ""
par TwoMasterClocksRingGptpShowcase.visualizer.infoVisualizer[10] font "\"<default>\""
par TwoMasterClocksRingGptpShowcase.visualizer.infoVisualizer[10] textColor "\"red1\""
par TwoMasterClocksRingGptpShowcase.visualizer.infoVisualizer[10] backgroundColor "\"white\""
par TwoMasterClocksRingGptpShowcase.visualizer.infoVisualizer[10] opacity 1
par TwoMasterClocksRingGptpShowcase.visualizer.infoVisualizer[10] placementHint "\"bottom\""
par TwoMasterClocksRingGptpShowcase.visualizer.infoVisualizer[10] placementPriority 0
par TwoMasterClocksRingGptpShowcase.visualizer.infoVisualizer[10] zIndex 10
par TwoMasterClocksRingGptpShowcase.visualizer.energyStorageVisualizer[0] typename "\"inet.visualizer.canvas.power.EnergyStorageCanvasVisualizer\""
par TwoMasterClocksRingGptpShowcase.visualizer.energyStorageVisualizer[0] visualizationTargetModule "\"^.^\""
par TwoMasterClocksRingGptpShowcase.visualizer.energyStorageVisualizer[0] visualizationSubjectModule "\"^.^\""
par TwoMasterClocksRingGptpShowcase.visualizer.energyStorageVisualizer[0] tags "\"\""
par TwoMasterClocksRingGptpShowcase.visualizer.energyStorageVisualizer[0] networkNodeVisualizerModule "\"TwoMasterClocksRingGptpShowcase.visualizer.networkNodeVisualizer[0]\""
par TwoMasterClocksRingGptpShowcase.visualizer.energyStorageVisualizer[0] displayEnergyStorages false
par TwoMasterClocksRingGptpShowcase.visualizer.energyStorageVisualizer[0] energyStorageFilter "\"**\""
par TwoMasterClocksRingGptpShowcase.visualizer.energyStorageVisualizer[0] color "\"green\""
par TwoMasterClocksRingGptpShowcase.visualizer.energyStorageVisualizer[0] width 8
par TwoMasterClocksRingGptpShowcase.visualizer.energyStorageVisualizer[0] height 24
par TwoMasterClocksRingGptpShowcase.visualizer.energyStorageVisualizer[0] spacing 2
par TwoMasterClocksRingGptpShowcase.visualizer.energyStorageVisualizer[0] placementHint "\"right\""
par TwoMasterClocksRingGptpShowcase.visualizer.energyStorageVisualizer[0] placementPriority 0
par TwoMasterClocksRingGptpShowcase.visualizer.energyStorageVisualizer[0] zIndex 10
par TwoMasterClocksRingGptpShowcase.visualizer.mediumVisualizer[0] typename "\"inet.visualizer.canvas.physicallayer.MediumCanvasVisualizer\""
par TwoMasterClocksRingGptpShowcase.visualizer.mediumVisualizer[0] visualizationTargetModule "\"^.^\""
par TwoMasterClocksRingGptpShowcase.visualizer.mediumVisualizer[0] visualizationSubjectModule "\"^.^\""
par TwoMasterClocksRingGptpShowcase.visualizer.mediumVisualizer[0] tags "\"\""
par TwoMasterClocksRingGptpShowcase.visualizer.mediumVisualizer[0] mediumModule "\"radioMedium\""
par TwoMasterClocksRingGptpShowcase.visualizer.mediumVisualizer[0] networkNodeVisualizerModule "\"TwoMasterClocksRingGptpShowcase.visualizer.networkNodeVisualizer[0]\""
par TwoMasterClocksRingGptpShowcase.visualizer.mediumVisualizer[0] nodeFilter "\"*\""
attr mutable ""
par TwoMasterClocksRingGptpShowcase.visualizer.mediumVisualizer[0] interfaceFilter "\"*\""
attr mutable ""
par TwoMasterClocksRingGptpShowcase.visualizer.mediumVisualizer[0] packetFilter "(omnetpp::cValueHolder)holder: \"*\""
attr mutable ""
par TwoMasterClocksRingGptpShowcase.visualizer.mediumVisualizer[0] displaySignals false
par TwoMasterClocksRingGptpShowcase.visualizer.mediumVisualizer[0] signalColor "\"dark\""
par TwoMasterClocksRingGptpShowcase.visualizer.mediumVisualizer[0] signalPropagationAnimationSpeed "nan "
attr mutable ""
par TwoMasterClocksRingGptpShowcase.visualizer.mediumVisualizer[0] signalPropagationAnimationTime 1s
attr unit s
par TwoMasterClocksRingGptpShowcase.visualizer.mediumVisualizer[0] signalPropagationAdditionalTime 0s
attr unit s
par TwoMasterClocksRingGptpShowcase.visualizer.mediumVisualizer[0] signalTransmissionAnimationSpeed "nan "
attr mutable ""
par TwoMasterClocksRingGptpShowcase.visualizer.mediumVisualizer[0] signalTransmissionAnimationTime 1s
attr unit s
par TwoMasterClocksRingGptpShowcase.visualizer.mediumVisualizer[0] signalAnimationSpeedChangeTimeMode "\"realTime\""
attr enum realTime,animationTime,simulationTime
par TwoMasterClocksRingGptpShowcase.visualizer.mediumVisualizer[0] signalAnimationSpeedChangeTime 1s
attr unit s
par TwoMasterClocksRingGptpShowcase.visualizer.mediumVisualizer[0] displaySignalDepartures false
par TwoMasterClocksRingGptpShowcase.visualizer.mediumVisualizer[0] signalDepartureImage "\"misc/signal_departure.png\""
par TwoMasterClocksRingGptpShowcase.visualizer.mediumVisualizer[0] signalDeparturePlacementHint "\"topCenter\""
par TwoMasterClocksRingGptpShowcase.visualizer.mediumVisualizer[0] signalDeparturePlacementPriority 1
par TwoMasterClocksRingGptpShowcase.visualizer.mediumVisualizer[0] displaySignalArrivals false
par TwoMasterClocksRingGptpShowcase.visualizer.mediumVisualizer[0] signalArrivalImage "\"misc/signal_arrival.png\""
par TwoMasterClocksRingGptpShowcase.visualizer.mediumVisualizer[0] signalArrivalPlacementHint "\"topCenter\""
par TwoMasterClocksRingGptpShowcase.visualizer.mediumVisualizer[0] signalArrivalPlacementPriority -1
par TwoMasterClocksRingGptpShowcase.visualizer.mediumVisualizer[0] displayCommunicationRanges false
par TwoMasterClocksRingGptpShowcase.visualizer.mediumVisualizer[0] communicationRangeLineColor "\"blue\""
par TwoMasterClocksRingGptpShowcase.visualizer.mediumVisualizer[0] communicationRangeLineStyle "\"solid\""
par TwoMasterClocksRingGptpShowcase.visualizer.mediumVisualizer[0] communicationRangeLineWidth 1
par TwoMasterClocksRingGptpShowcase.visualizer.mediumVisualizer[0] displayInterferenceRanges false
par TwoMasterClocksRingGptpShowcase.visualizer.mediumVisualizer[0] interferenceRangeLineColor "\"gray\""
par TwoMasterClocksRingGptpShowcase.visualizer.mediumVisualizer[0] interferenceRangeLineStyle "\"solid\""
par TwoMasterClocksRingGptpShowcase.visualizer.mediumVisualizer[0] interferenceRangeLineWidth 1
par TwoMasterClocksRingGptpShowcase.visualizer.mediumVisualizer[0] autoPowerAxis true
par TwoMasterClocksRingGptpShowcase.visualizer.mediumVisualizer[0] signalMinPower "inf dBmW"
attr unit dBmW
par TwoMasterClocksRingGptpShowcase.visualizer.mediumVisualizer[0] signalMaxPower 0dBmW
attr unit dBmW
par TwoMasterClocksRingGptpShowcase.visualizer.mediumVisualizer[0] signalMinPowerDensity "inf dBmWpMHz"
attr unit dBmWpMHz
par TwoMasterClocksRingGptpShowcase.visualizer.mediumVisualizer[0] signalMaxPowerDensity "-inf dBmWpMHz"
attr unit dBmWpMHz
par TwoMasterClocksRingGptpShowcase.visualizer.mediumVisualizer[0] autoTimeAxis true
par TwoMasterClocksRingGptpShowcase.visualizer.mediumVisualizer[0] signalMinTime 0s
attr unit s
par TwoMasterClocksRingGptpShowcase.visualizer.mediumVisualizer[0] signalMaxTime 0s
attr unit s
par TwoMasterClocksRingGptpShowcase.visualizer.mediumVisualizer[0] autoFrequencyAxis true
par TwoMasterClocksRingGptpShowcase.visualizer.mediumVisualizer[0] signalMinFrequency "inf Hz"
attr unit Hz
par TwoMasterClocksRingGptpShowcase.visualizer.mediumVisualizer[0] signalMaxFrequency "-inf Hz"
attr unit Hz
par TwoMasterClocksRingGptpShowcase.visualizer.mediumVisualizer[0] displayMainPowerDensityMap false
par TwoMasterClocksRingGptpShowcase.visualizer.mediumVisualizer[0] mainPowerDensityMapPixmapDensity 1
par TwoMasterClocksRingGptpShowcase.visualizer.mediumVisualizer[0] mainPowerDensityMapMinX 0
par TwoMasterClocksRingGptpShowcase.visualizer.mediumVisualizer[0] mainPowerDensityMapMaxX "nan "
par TwoMasterClocksRingGptpShowcase.visualizer.mediumVisualizer[0] mainPowerDensityMapMinY 0
par TwoMasterClocksRingGptpShowcase.visualizer.mediumVisualizer[0] mainPowerDensityMapMaxY "nan "
par TwoMasterClocksRingGptpShowcase.visualizer.mediumVisualizer[0] mainPowerDensityMapZ 0
par TwoMasterClocksRingGptpShowcase.visualizer.mediumVisualizer[0] mainPowerDensityMapFigureXTickCount 3
par TwoMasterClocksRingGptpShowcase.visualizer.mediumVisualizer[0] mainPowerDensityMapFigureYTickCount 3
par TwoMasterClocksRingGptpShowcase.visualizer.mediumVisualizer[0] displayPowerDensityMaps false
par TwoMasterClocksRingGptpShowcase.visualizer.mediumVisualizer[0] powerDensityMapMode "\"auto\""
attr enum total,signal,auto
par TwoMasterClocksRingGptpShowcase.visualizer.mediumVisualizer[0] powerDensityMapPixelMode "\"mean\""
attr enum sample,partition,mean
par TwoMasterClocksRingGptpShowcase.visualizer.mediumVisualizer[0] powerDensityMapApproximationSize 10
par TwoMasterClocksRingGptpShowcase.visualizer.mediumVisualizer[0] powerDensityMapCenterFrequency "nan Hz"
attr mutable ""
attr unit Hz
par TwoMasterClocksRingGptpShowcase.visualizer.mediumVisualizer[0] powerDensityMapBandwidth 0Hz
attr mutable ""
attr unit Hz
par TwoMasterClocksRingGptpShowcase.visualizer.mediumVisualizer[0] powerDensityMapFigureWidth 200
par TwoMasterClocksRingGptpShowcase.visualizer.mediumVisualizer[0] powerDensityMapFigureHeight 120
par TwoMasterClocksRingGptpShowcase.visualizer.mediumVisualizer[0] powerDensityMapPixmapWidth 200
par TwoMasterClocksRingGptpShowcase.visualizer.mediumVisualizer[0] powerDensityMapPixmapHeight 120
par TwoMasterClocksRingGptpShowcase.visualizer.mediumVisualizer[0] powerDensityMapZ 0
par TwoMasterClocksRingGptpShowcase.visualizer.mediumVisualizer[0] powerDensityMapFigureXTickCount 3
par TwoMasterClocksRingGptpShowcase.visualizer.mediumVisualizer[0] powerDensityMapFigureYTickCount 3
par TwoMasterClocksRingGptpShowcase.visualizer.mediumVisualizer[0] displaySpectrums false
par TwoMasterClocksRingGptpShowcase.visualizer.mediumVisualizer[0] spectrumMode "\"auto\""
attr enum total,signal,auto
par TwoMasterClocksRingGptpShowcase.visualizer.mediumVisualizer[0] spectrumFigureWidth 200
par TwoMasterClocksRingGptpShowcase.visualizer.mediumVisualizer[0] spectrumFigureHeight 120
par TwoMasterClocksRingGptpShowcase.visualizer.mediumVisualizer[0] spectrumFigureXTickCount 3
par TwoMasterClocksRingGptpShowcase.visualizer.mediumVisualizer[0] spectrumFigureYTickCount 5
par TwoMasterClocksRingGptpShowcase.visualizer.mediumVisualizer[0] spectrumFigureInterpolationSize 5
par TwoMasterClocksRingGptpShowcase.visualizer.mediumVisualizer[0] spectrumPlacementHint "\"bottomCenter\""
par TwoMasterClocksRingGptpShowcase.visualizer.mediumVisualizer[0] spectrumPlacementPriority -1
par TwoMasterClocksRingGptpShowcase.visualizer.mediumVisualizer[0] displaySpectrograms false
par TwoMasterClocksRingGptpShowcase.visualizer.mediumVisualizer[0] spectrogramMode "\"auto\""
attr enum total,signal,auto
par TwoMasterClocksRingGptpShowcase.visualizer.mediumVisualizer[0] spectrogramPixelMode "\"mean\""
attr enum sample,partition,mean
par TwoMasterClocksRingGptpShowcase.visualizer.mediumVisualizer[0] spectrogramFigureWidth 200
par TwoMasterClocksRingGptpShowcase.visualizer.mediumVisualizer[0] spectrogramFigureHeight 120
par TwoMasterClocksRingGptpShowcase.visualizer.mediumVisualizer[0] spectrogramPixmapWidth 200
par TwoMasterClocksRingGptpShowcase.visualizer.mediumVisualizer[0] spectrogramPixmapHeight 120
par TwoMasterClocksRingGptpShowcase.visualizer.mediumVisualizer[0] spectrogramFigureXTickCount 3
par TwoMasterClocksRingGptpShowcase.visualizer.mediumVisualizer[0] spectrogramFigureYTickCount 5
par TwoMasterClocksRingGptpShowcase.visualizer.mediumVisualizer[0] spectrogramPlacementHint "\"bottomCenter\""
par TwoMasterClocksRingGptpShowcase.visualizer.mediumVisualizer[0] spectrogramPlacementPriority -1
par TwoMasterClocksRingGptpShowcase.visualizer.mediumVisualizer[0] zIndex 0
par TwoMasterClocksRingGptpShowcase.visualizer.mediumVisualizer[0] signalShape "\"ring\""
attr enum ring,sphere
par TwoMasterClocksRingGptpShowcase.visualizer.mediumVisualizer[0] signalOpacity 0.5
par TwoMasterClocksRingGptpShowcase.visualizer.mediumVisualizer[0] signalRingCount 20
par TwoMasterClocksRingGptpShowcase.visualizer.mediumVisualizer[0] signalRingSize 50m
attr unit m
par TwoMasterClocksRingGptpShowcase.visualizer.mediumVisualizer[0] signalFadingDistance 50m
attr unit m
par TwoMasterClocksRingGptpShowcase.visualizer.mediumVisualizer[0] signalFadingFactor 1.2
par TwoMasterClocksRingGptpShowcase.visualizer.mediumVisualizer[0] signalWaveCount 20
par TwoMasterClocksRingGptpShowcase.visualizer.mediumVisualizer[0] signalWaveLength 50m
attr unit m
par TwoMasterClocksRingGptpShowcase.visualizer.mediumVisualizer[0] signalWaveWidth 10m
attr unit m
par TwoMasterClocksRingGptpShowcase.visualizer.mediumVisualizer[0] signalWaveFadingAnimationSpeedFactor 1
par TwoMasterClocksRingGptpShowcase.visualizer.mediumVisualizer[0] displayCommunicationHeat false
par TwoMasterClocksRingGptpShowcase.visualizer.obstacleLossVisualizer[0] typename "\"inet.visualizer.canvas.physicallayer.TracingObstacleLossCanvasVisualizer\""
par TwoMasterClocksRingGptpShowcase.visualizer.obstacleLossVisualizer[0] visualizationTargetModule "\"^.^\""
par TwoMasterClocksRingGptpShowcase.visualizer.obstacleLossVisualizer[0] visualizationSubjectModule "\"^.^\""
par TwoMasterClocksRingGptpShowcase.visualizer.obstacleLossVisualizer[0] tags "\"\""
par TwoMasterClocksRingGptpShowcase.visualizer.obstacleLossVisualizer[0] displayIntersections false
par TwoMasterClocksRingGptpShowcase.visualizer.obstacleLossVisualizer[0] intersectionLineColor "\"red\""
par TwoMasterClocksRingGptpShowcase.visualizer.obstacleLossVisualizer[0] intersectionLineStyle "\"solid\""
par TwoMasterClocksRingGptpShowcase.visualizer.obstacleLossVisualizer[0] intersectionLineWidth 1
par TwoMasterClocksRingGptpShowcase.visualizer.obstacleLossVisualizer[0] displayFaceNormalVectors false
par TwoMasterClocksRingGptpShowcase.visualizer.obstacleLossVisualizer[0] faceNormalLineColor "\"grey\""
par TwoMasterClocksRingGptpShowcase.visualizer.obstacleLossVisualizer[0] faceNormalLineStyle "\"solid\""
par TwoMasterClocksRingGptpShowcase.visualizer.obstacleLossVisualizer[0] faceNormalLineWidth 1
par TwoMasterClocksRingGptpShowcase.visualizer.obstacleLossVisualizer[0] fadeOutMode "\"realTime\""
attr enum realTime,animationTime,simulationTime
par TwoMasterClocksRingGptpShowcase.visualizer.obstacleLossVisualizer[0] fadeOutTime 1s
attr unit s
par TwoMasterClocksRingGptpShowcase.visualizer.obstacleLossVisualizer[0] fadeOutAnimationSpeed 0
par TwoMasterClocksRingGptpShowcase.visualizer.obstacleLossVisualizer[0] zIndex 0
par TwoMasterClocksRingGptpShowcase.visualizer.packetDropVisualizer[0] typename "\"inet.visualizer.canvas.common.PacketDropCanvasVisualizer\""
par TwoMasterClocksRingGptpShowcase.visualizer.packetDropVisualizer[0] visualizationTargetModule "\"^.^\""
par TwoMasterClocksRingGptpShowcase.visualizer.packetDropVisualizer[0] visualizationSubjectModule "\"^.^\""
par TwoMasterClocksRingGptpShowcase.visualizer.packetDropVisualizer[0] tags "\"\""
par TwoMasterClocksRingGptpShowcase.visualizer.packetDropVisualizer[0] displayPacketDrops false
par TwoMasterClocksRingGptpShowcase.visualizer.packetDropVisualizer[0] nodeFilter "\"*\""
attr mutable ""
par TwoMasterClocksRingGptpShowcase.visualizer.packetDropVisualizer[0] interfaceFilter "\"*\""
attr mutable ""
par TwoMasterClocksRingGptpShowcase.visualizer.packetDropVisualizer[0] packetFilter "(omnetpp::cValueHolder)holder: \"*\""
attr mutable ""
par TwoMasterClocksRingGptpShowcase.visualizer.packetDropVisualizer[0] detailsFilter "\"*\""
attr mutable ""
par TwoMasterClocksRingGptpShowcase.visualizer.packetDropVisualizer[0] icon "\"msg/packet_s\""
par TwoMasterClocksRingGptpShowcase.visualizer.packetDropVisualizer[0] iconTintAmount 1
par TwoMasterClocksRingGptpShowcase.visualizer.packetDropVisualizer[0] iconTintColor "\"dark\""
par TwoMasterClocksRingGptpShowcase.visualizer.packetDropVisualizer[0] labelFormat "\"%n\""
attr mutable ""
par TwoMasterClocksRingGptpShowcase.visualizer.packetDropVisualizer[0] labelFont "\"<default>\""
par TwoMasterClocksRingGptpShowcase.visualizer.packetDropVisualizer[0] labelColor "\"black\""
par TwoMasterClocksRingGptpShowcase.visualizer.packetDropVisualizer[0] fadeOutMode "\"realTime\""
attr enum realTime,animationTime,simulationTime
par TwoMasterClocksRingGptpShowcase.visualizer.packetDropVisualizer[0] fadeOutTime 1s
attr unit s
par TwoMasterClocksRingGptpShowcase.visualizer.packetDropVisualizer[0] fadeOutAnimationSpeed 0
par TwoMasterClocksRingGptpShowcase.visualizer.packetDropVisualizer[0] zIndex 10
par TwoMasterClocksRingGptpShowcase.visualizer.packetDropVisualizer[0] dx 32
par TwoMasterClocksRingGptpShowcase.visualizer.packetDropVisualizer[0] dy 64
par TwoMasterClocksRingGptpShowcase.visualizer.queueVisualizer[0] typename "\"inet.visualizer.canvas.common.QueueCanvasVisualizer\""
par TwoMasterClocksRingGptpShowcase.visualizer.queueVisualizer[0] visualizationTargetModule "\"^.^\""
par TwoMasterClocksRingGptpShowcase.visualizer.queueVisualizer[0] visualizationSubjectModule "\"^.^\""
par TwoMasterClocksRingGptpShowcase.visualizer.queueVisualizer[0] tags "\"\""
par TwoMasterClocksRingGptpShowcase.visualizer.queueVisualizer[0] networkNodeVisualizerModule "\"TwoMasterClocksRingGptpShowcase.visualizer.networkNodeVisualizer[0]\""
par TwoMasterClocksRingGptpShowcase.visualizer.queueVisualizer[0] displayQueues false
par TwoMasterClocksRingGptpShowcase.visualizer.queueVisualizer[0] queueFilter "\"**\""
par TwoMasterClocksRingGptpShowcase.visualizer.queueVisualizer[0] color "\"blue\""
par TwoMasterClocksRingGptpShowcase.visualizer.queueVisualizer[0] width 8
par TwoMasterClocksRingGptpShowcase.visualizer.queueVisualizer[0] height 24
par TwoMasterClocksRingGptpShowcase.visualizer.queueVisualizer[0] spacing 2
par TwoMasterClocksRingGptpShowcase.visualizer.queueVisualizer[0] placementHint "\"right\""
par TwoMasterClocksRingGptpShowcase.visualizer.queueVisualizer[0] placementPriority 0
par TwoMasterClocksRingGptpShowcase.visualizer.queueVisualizer[0] zIndex 10
par TwoMasterClocksRingGptpShowcase.visualizer.gateScheduleVisualizer[0] typename "\"inet.visualizer.canvas.common.GateScheduleCanvasVisualizer\""
par TwoMasterClocksRingGptpShowcase.visualizer.gateScheduleVisualizer[0] visualizationTargetModule "\"^.^\""
par TwoMasterClocksRingGptpShowcase.visualizer.gateScheduleVisualizer[0] visualizationSubjectModule "\"^.^\""
par TwoMasterClocksRingGptpShowcase.visualizer.gateScheduleVisualizer[0] tags "\"\""
par TwoMasterClocksRingGptpShowcase.visualizer.gateScheduleVisualizer[0] networkNodeVisualizerModule "\"TwoMasterClocksRingGptpShowcase.visualizer.networkNodeVisualizer[0]\""
par TwoMasterClocksRingGptpShowcase.visualizer.gateScheduleVisualizer[0] displayGateSchedules false
par TwoMasterClocksRingGptpShowcase.visualizer.gateScheduleVisualizer[0] labelFormat "\"%i %D\""
par TwoMasterClocksRingGptpShowcase.visualizer.gateScheduleVisualizer[0] gateFilter "\"**\""
par TwoMasterClocksRingGptpShowcase.visualizer.gateScheduleVisualizer[0] width 100
par TwoMasterClocksRingGptpShowcase.visualizer.gateScheduleVisualizer[0] height 8
par TwoMasterClocksRingGptpShowcase.visualizer.gateScheduleVisualizer[0] spacing 2
par TwoMasterClocksRingGptpShowcase.visualizer.gateScheduleVisualizer[0] placementHint "\"right\""
par TwoMasterClocksRingGptpShowcase.visualizer.gateScheduleVisualizer[0] placementPriority 0
par TwoMasterClocksRingGptpShowcase.visualizer.gateScheduleVisualizer[0] displayDuration 0s
attr mutable ""
attr unit s
par TwoMasterClocksRingGptpShowcase.visualizer.gateScheduleVisualizer[0] currentTimePosition 50
par TwoMasterClocksRingGptpShowcase.visualizer.gateScheduleVisualizer[0] zIndex 10
par TwoMasterClocksRingGptpShowcase.visualizer.radioVisualizer[0] typename "\"inet.visualizer.canvas.physicallayer.RadioCanvasVisualizer\""
par TwoMasterClocksRingGptpShowcase.visualizer.radioVisualizer[0] visualizationTargetModule "\"^.^\""
par TwoMasterClocksRingGptpShowcase.visualizer.radioVisualizer[0] visualizationSubjectModule "\"^.^\""
par TwoMasterClocksRingGptpShowcase.visualizer.radioVisualizer[0] tags "\"\""
par TwoMasterClocksRingGptpShowcase.visualizer.radioVisualizer[0] networkNodeVisualizerModule "\"TwoMasterClocksRingGptpShowcase.visualizer.networkNodeVisualizer[0]\""
par TwoMasterClocksRingGptpShowcase.visualizer.radioVisualizer[0] displayRadios false
par TwoMasterClocksRingGptpShowcase.visualizer.radioVisualizer[0] displayRadioMode true
par TwoMasterClocksRingGptpShowcase.visualizer.radioVisualizer[0] displayReceptionState true
par TwoMasterClocksRingGptpShowcase.visualizer.radioVisualizer[0] displayTransmissionState true
par TwoMasterClocksRingGptpShowcase.visualizer.radioVisualizer[0] displayAntennaLobes false
par TwoMasterClocksRingGptpShowcase.visualizer.radioVisualizer[0] radioFilter "\"**\""
attr mutable ""
par TwoMasterClocksRingGptpShowcase.visualizer.radioVisualizer[0] radioModeImages "\"block/process_vs block/timer_vs block/wrx_vs block/wtx_vs block/wrxtx_vs block/cogwheel_vs\""
par TwoMasterClocksRingGptpShowcase.visualizer.radioVisualizer[0] receptionStateImages "\"- - misc/receiving misc/receiving\""
par TwoMasterClocksRingGptpShowcase.visualizer.radioVisualizer[0] transmissionStateImages "\"- - misc/transmitting\""
par TwoMasterClocksRingGptpShowcase.visualizer.radioVisualizer[0] width 16
par TwoMasterClocksRingGptpShowcase.visualizer.radioVisualizer[0] height 16
par TwoMasterClocksRingGptpShowcase.visualizer.radioVisualizer[0] placementHint "\"bottomRight\""
par TwoMasterClocksRingGptpShowcase.visualizer.radioVisualizer[0] placementPriority 0
par TwoMasterClocksRingGptpShowcase.visualizer.radioVisualizer[0] antennaLobeNormalize false
par TwoMasterClocksRingGptpShowcase.visualizer.radioVisualizer[0] antennaLobeRelativeLabels false
par TwoMasterClocksRingGptpShowcase.visualizer.radioVisualizer[0] antennaLobePlaneGlobal true
par TwoMasterClocksRingGptpShowcase.visualizer.radioVisualizer[0] antennaLobePlane "\"view\""
attr enum view,xy,xz,yz
par TwoMasterClocksRingGptpShowcase.visualizer.radioVisualizer[0] antennaLobeMode "\"logarithmic\""
attr enum logarithmic,linear
par TwoMasterClocksRingGptpShowcase.visualizer.radioVisualizer[0] antennaLobeLogarithmicBase 10
par TwoMasterClocksRingGptpShowcase.visualizer.radioVisualizer[0] antennaLobeLogarithmicScale 100
par TwoMasterClocksRingGptpShowcase.visualizer.radioVisualizer[0] antennaLobeRadius 100
par TwoMasterClocksRingGptpShowcase.visualizer.radioVisualizer[0] antennaLobeStep 10deg
attr unit deg
par TwoMasterClocksRingGptpShowcase.visualizer.radioVisualizer[0] antennaLobeOpacity 0.25
par TwoMasterClocksRingGptpShowcase.visualizer.radioVisualizer[0] antennaLobeLineSmooth true
par TwoMasterClocksRingGptpShowcase.visualizer.radioVisualizer[0] antennaLobeLineColor "\"black\""
par TwoMasterClocksRingGptpShowcase.visualizer.radioVisualizer[0] antennaLobeLineStyle "\"solid\""
par TwoMasterClocksRingGptpShowcase.visualizer.radioVisualizer[0] antennaLobeLineWidth 1
par TwoMasterClocksRingGptpShowcase.visualizer.radioVisualizer[0] antennaLobeFillColor "\"white\""
par TwoMasterClocksRingGptpShowcase.visualizer.radioVisualizer[0] zIndex 10
par TwoMasterClocksRingGptpShowcase.visualizer.physicalLinkVisualizer[0] typename "\"inet.visualizer.canvas.physicallayer.PhysicalLinkCanvasVisualizer\""
par TwoMasterClocksRingGptpShowcase.visualizer.physicalLinkVisualizer[0] visualizationTargetModule "\"^.^\""
par TwoMasterClocksRingGptpShowcase.visualizer.physicalLinkVisualizer[0] visualizationSubjectModule "\"^.^\""
par TwoMasterClocksRingGptpShowcase.visualizer.physicalLinkVisualizer[0] tags "\"\""
par TwoMasterClocksRingGptpShowcase.visualizer.physicalLinkVisualizer[0] displayLinks false
par TwoMasterClocksRingGptpShowcase.visualizer.physicalLinkVisualizer[0] activityLevel "\"service\""
attr enum service,peer,protocol
par TwoMasterClocksRingGptpShowcase.visualizer.physicalLinkVisualizer[0] nodeFilter "\"*\""
attr mutable ""
par TwoMasterClocksRingGptpShowcase.visualizer.physicalLinkVisualizer[0] interfaceFilter "\"*\""
attr mutable ""
par TwoMasterClocksRingGptpShowcase.visualizer.physicalLinkVisualizer[0] packetFilter "(omnetpp::cValueHolder)holder: \"*\""
attr mutable ""
par TwoMasterClocksRingGptpShowcase.visualizer.physicalLinkVisualizer[0] lineColor "\"olive\""
par TwoMasterClocksRingGptpShowcase.visualizer.physicalLinkVisualizer[0] lineStyle "\"dotted\""
par TwoMasterClocksRingGptpShowcase.visualizer.physicalLinkVisualizer[0] lineWidth 3
par TwoMasterClocksRingGptpShowcase.visualizer.physicalLinkVisualizer[0] lineShift 16
par TwoMasterClocksRingGptpShowcase.visualizer.physicalLinkVisualizer[0] lineShiftMode "\"normal\""
par TwoMasterClocksRingGptpShowcase.visualizer.physicalLinkVisualizer[0] lineContactSpacing 3
par TwoMasterClocksRingGptpShowcase.visualizer.physicalLinkVisualizer[0] lineContactMode "\"rectangular\""
attr enum circular,rectangular
par TwoMasterClocksRingGptpShowcase.visualizer.physicalLinkVisualizer[0] labelFormat "\"%n\""
par TwoMasterClocksRingGptpShowcase.visualizer.physicalLinkVisualizer[0] labelFont "\"<default>, 8px\""
par TwoMasterClocksRingGptpShowcase.visualizer.physicalLinkVisualizer[0] labelColor "\"olive\""
par TwoMasterClocksRingGptpShowcase.visualizer.physicalLinkVisualizer[0] fadeOutMode "\"realTime\""
attr enum realTime,animationTime,simulationTime
par TwoMasterClocksRingGptpShowcase.visualizer.physicalLinkVisualizer[0] fadeOutTime 1s
attr unit s
par TwoMasterClocksRingGptpShowcase.visualizer.physicalLinkVisualizer[0] fadeOutAnimationSpeed 0
par TwoMasterClocksRingGptpShowcase.visualizer.physicalLinkVisualizer[0] holdAnimationTime 0s
attr unit s
par TwoMasterClocksRingGptpShowcase.visualizer.physicalLinkVisualizer[0] zIndex 1
par TwoMasterClocksRingGptpShowcase.visualizer.interfaceTableVisualizer[0] typename "\"inet.visualizer.canvas.linklayer.InterfaceTableCanvasVisualizer\""
par TwoMasterClocksRingGptpShowcase.visualizer.interfaceTableVisualizer[0] visualizationTargetModule "\"^.^\""
par TwoMasterClocksRingGptpShowcase.visualizer.interfaceTableVisualizer[0] visualizationSubjectModule "\"^.^\""
par TwoMasterClocksRingGptpShowcase.visualizer.interfaceTableVisualizer[0] tags "\"\""
par TwoMasterClocksRingGptpShowcase.visualizer.interfaceTableVisualizer[0] networkNodeVisualizerModule "\"TwoMasterClocksRingGptpShowcase.visualizer.networkNodeVisualizer[0]\""
par TwoMasterClocksRingGptpShowcase.visualizer.interfaceTableVisualizer[0] displayInterfaceTables false
par TwoMasterClocksRingGptpShowcase.visualizer.interfaceTableVisualizer[0] displayWiredInterfacesAtConnections true
par TwoMasterClocksRingGptpShowcase.visualizer.interfaceTableVisualizer[0] displayBackground false
par TwoMasterClocksRingGptpShowcase.visualizer.interfaceTableVisualizer[0] nodeFilter "\"*\""
attr mutable ""
par TwoMasterClocksRingGptpShowcase.visualizer.interfaceTableVisualizer[0] interfaceFilter "\"not(lo*)\""
attr mutable ""
par TwoMasterClocksRingGptpShowcase.visualizer.interfaceTableVisualizer[0] format "\"%N %\\\\%a%/%l\""
attr mutable ""
par TwoMasterClocksRingGptpShowcase.visualizer.interfaceTableVisualizer[0] placementHint "\"top\""
par TwoMasterClocksRingGptpShowcase.visualizer.interfaceTableVisualizer[0] placementPriority 0
par TwoMasterClocksRingGptpShowcase.visualizer.interfaceTableVisualizer[0] font "\"<default>\""
par TwoMasterClocksRingGptpShowcase.visualizer.interfaceTableVisualizer[0] textColor "\"#005030\""
par TwoMasterClocksRingGptpShowcase.visualizer.interfaceTableVisualizer[0] backgroundColor "\"white\""
par TwoMasterClocksRingGptpShowcase.visualizer.interfaceTableVisualizer[0] opacity 1
par TwoMasterClocksRingGptpShowcase.visualizer.interfaceTableVisualizer[0] zIndex 10
par TwoMasterClocksRingGptpShowcase.visualizer.dataLinkVisualizer[0] typename "\"inet.visualizer.canvas.linklayer.DataLinkCanvasVisualizer\""
par TwoMasterClocksRingGptpShowcase.visualizer.dataLinkVisualizer[0] visualizationTargetModule "\"^.^\""
par TwoMasterClocksRingGptpShowcase.visualizer.dataLinkVisualizer[0] visualizationSubjectModule "\"^.^\""
par TwoMasterClocksRingGptpShowcase.visualizer.dataLinkVisualizer[0] tags "\"primary GM domain0\""
[...]
par TwoMasterClocksRingGptpShowcase.tsnDevice4.ipv4.arp addressType "\"ipv4\""
attr enum ipv4,ipv6,mac,moduleid,modulepath
par TwoMasterClocksRingGptpShowcase.tsnDevice4.ipv4.lp typename "\"inet.common.MessageDispatcher\""
par TwoMasterClocksRingGptpShowcase.tsnDevice4.ipv4.lp displayStringTextFormat "\"processed %p pk (%l)\""
par TwoMasterClocksRingGptpShowcase.tsnDevice4.ipv4.lp forwardServiceRegistration true
par TwoMasterClocksRingGptpShowcase.tsnDevice4.ipv4.lp forwardProtocolRegistration true
par TwoMasterClocksRingGptpShowcase.tsnDevice4.ipv4 typename "\"inet.networklayer.ipv4.Ipv4NetworkLayer\""
par TwoMasterClocksRingGptpShowcase.tsnDevice4.ipv4 forwarding false
par TwoMasterClocksRingGptpShowcase.tsnDevice4.ipv4 multicastForwarding false
par TwoMasterClocksRingGptpShowcase.tsnDevice4.ipv4 interfaceTableModule "\"TwoMasterClocksRingGptpShowcase.tsnDevice4.interfaceTable\""
par TwoMasterClocksRingGptpShowcase.tsnDevice4.ipv4 displayStringTextFormat "\"%i\""
par TwoMasterClocksRingGptpShowcase.tsnDevice4.nl typename "\"inet.common.MessageDispatcher\""
par TwoMasterClocksRingGptpShowcase.tsnDevice4.nl displayStringTextFormat "\"processed %p pk (%l)\""
par TwoMasterClocksRingGptpShowcase.tsnDevice4.nl forwardServiceRegistration true
par TwoMasterClocksRingGptpShowcase.tsnDevice4.nl forwardProtocolRegistration true
par TwoMasterClocksRingGptpShowcase.tsnDevice4.udp typename "\"inet.transportlayer.udp.Udp\""
par TwoMasterClocksRingGptpShowcase.tsnDevice4.udp interfaceTableModule "\"TwoMasterClocksRingGptpShowcase.tsnDevice4.interfaceTable\""
par TwoMasterClocksRingGptpShowcase.tsnDevice4.udp icmpModule "\"^.ipv4.icmp\""
par TwoMasterClocksRingGptpShowcase.tsnDevice4.udp icmpv6Module "\"^.ipv6.icmpv6\""
par TwoMasterClocksRingGptpShowcase.tsnDevice4.udp crcMode "\"declared\""
attr enum disabled,declared,computed
par TwoMasterClocksRingGptpShowcase.tsnDevice4.udp defaultMulticastLoop true
scalar TwoMasterClocksRingGptpShowcase.tsnDevice4.udp packetReceived:count 0
attr interpolationmode none
attr recordingmode count
attr source packetReceived
attr title "packets received, count"
scalar TwoMasterClocksRingGptpShowcase.tsnDevice4.udp packetReceived:sum(packetBytes) 0
attr interpolationmode none
attr recordingmode sum(packetBytes)
attr source packetReceived
attr title "packets received, sum(packetBytes)"
scalar TwoMasterClocksRingGptpShowcase.tsnDevice4.udp packetSent:count 0
attr interpolationmode none
attr recordingmode count
attr source packetSent
attr title "packets sent, count"
scalar TwoMasterClocksRingGptpShowcase.tsnDevice4.udp packetSent:sum(packetBytes) 0
attr interpolationmode none
attr recordingmode sum(packetBytes)
attr source packetSent
attr title "packets sent, sum(packetBytes)"
scalar TwoMasterClocksRingGptpShowcase.tsnDevice4.udp passedUpPk:count 0
attr interpolationmode none
attr recordingmode count
attr source packetSentToUpper
attr title "packets passed up, count"
scalar TwoMasterClocksRingGptpShowcase.tsnDevice4.udp droppedPkWrongPort:count 0
attr interpolationmode none
attr recordingmode count
attr source packetDropReasonIsNoPortFound(packetDropped)
attr title "packets dropped (wrong port), count"
scalar TwoMasterClocksRingGptpShowcase.tsnDevice4.udp droppedPkBadChecksum:count 0
attr interpolationmode none
attr recordingmode count
attr source packetDropReasonIsIncorrectlyReceived(packetDropped)
attr title "packets dropped (checksum error), count"
par TwoMasterClocksRingGptpShowcase.tsnDevice4.tcp typename "\"inet.transportlayer.tcp.Tcp\""
par TwoMasterClocksRingGptpShowcase.tsnDevice4.tcp crcMode "\"declared\""
attr enum declared,computed
par TwoMasterClocksRingGptpShowcase.tsnDevice4.tcp advertisedWindow 7504
par TwoMasterClocksRingGptpShowcase.tsnDevice4.tcp delayedAcksEnabled false
par TwoMasterClocksRingGptpShowcase.tsnDevice4.tcp nagleEnabled true
par TwoMasterClocksRingGptpShowcase.tsnDevice4.tcp limitedTransmitEnabled false
par TwoMasterClocksRingGptpShowcase.tsnDevice4.tcp increasedIWEnabled false
par TwoMasterClocksRingGptpShowcase.tsnDevice4.tcp sackSupport false
par TwoMasterClocksRingGptpShowcase.tsnDevice4.tcp windowScalingSupport false
par TwoMasterClocksRingGptpShowcase.tsnDevice4.tcp windowScalingFactor -1
par TwoMasterClocksRingGptpShowcase.tsnDevice4.tcp timestampSupport false
par TwoMasterClocksRingGptpShowcase.tsnDevice4.tcp mss 536
par TwoMasterClocksRingGptpShowcase.tsnDevice4.tcp msl 120s
attr unit s
par TwoMasterClocksRingGptpShowcase.tsnDevice4.tcp tcpAlgorithmClass "\"TcpReno\""
par TwoMasterClocksRingGptpShowcase.tsnDevice4.tcp useDataNotification false
par TwoMasterClocksRingGptpShowcase.tsnDevice4.tcp dupthresh 3
par TwoMasterClocksRingGptpShowcase.tsnDevice4.tcp initialSsthresh 4294967295
par TwoMasterClocksRingGptpShowcase.tsnDevice4.tcp stopOperationExtraTime 0s
attr unit s
par TwoMasterClocksRingGptpShowcase.tsnDevice4.tcp stopOperationTimeout 2s
attr unit s
par TwoMasterClocksRingGptpShowcase.tsnDevice4.tcp ecnWillingness false
par TwoMasterClocksRingGptpShowcase.tsnDevice4.tcp dctcpGamma 0.0625
par TwoMasterClocksRingGptpShowcase.tsnDevice4.tn typename "\"inet.common.MessageDispatcher\""
par TwoMasterClocksRingGptpShowcase.tsnDevice4.tn displayStringTextFormat "\"processed %p pk (%l)\""
par TwoMasterClocksRingGptpShowcase.tsnDevice4.tn forwardServiceRegistration true
par TwoMasterClocksRingGptpShowcase.tsnDevice4.tn forwardProtocolRegistration true
par TwoMasterClocksRingGptpShowcase.tsnDevice4.at typename "\"inet.common.MessageDispatcher\""
par TwoMasterClocksRingGptpShowcase.tsnDevice4.at displayStringTextFormat "\"processed %p pk (%l)\""
par TwoMasterClocksRingGptpShowcase.tsnDevice4.at forwardServiceRegistration true
par TwoMasterClocksRingGptpShowcase.tsnDevice4.at forwardProtocolRegistration true
par TwoMasterClocksRingGptpShowcase.tsnDevice4.gptp.socketIn.channel typename "\"ned.IdealChannel\""
par TwoMasterClocksRingGptpShowcase.tsnDevice4.gptp.multiplexer.out.channel typename "\"ned.IdealChannel\""
par TwoMasterClocksRingGptpShowcase.tsnDevice4.gptp.domain[0] typename "\"inet.linklayer.ieee8021as.Gptp\""
par TwoMasterClocksRingGptpShowcase.tsnDevice4.gptp.domain[0] clockModule "\"tsnDevice4.clock.clock[0]\""
par TwoMasterClocksRingGptpShowcase.tsnDevice4.gptp.domain[0] interfaceTableModule "\"TwoMasterClocksRingGptpShowcase.tsnDevice4.interfaceTable\""
par TwoMasterClocksRingGptpShowcase.tsnDevice4.gptp.domain[0] gptpNodeType "\"SLAVE_NODE\""
par TwoMasterClocksRingGptpShowcase.tsnDevice4.gptp.domain[0] domainNumber 0
par TwoMasterClocksRingGptpShowcase.tsnDevice4.gptp.domain[0] slavePort "\"eth0\""
par TwoMasterClocksRingGptpShowcase.tsnDevice4.gptp.domain[0] masterPorts []
par TwoMasterClocksRingGptpShowcase.tsnDevice4.gptp.domain[0] correctionField 0s
attr unit s
par TwoMasterClocksRingGptpShowcase.tsnDevice4.gptp.domain[0] syncInterval 0.125s
attr unit s
par TwoMasterClocksRingGptpShowcase.tsnDevice4.gptp.domain[0] pdelayInterval 1s
attr unit s
par TwoMasterClocksRingGptpShowcase.tsnDevice4.gptp.domain[0] syncInitialOffset 0.03125s
attr unit s
par TwoMasterClocksRingGptpShowcase.tsnDevice4.gptp.domain[0] pdelayInitialOffset 0.0001s
attr unit s
par TwoMasterClocksRingGptpShowcase.tsnDevice4.gptp.domain[0] pDelayReqProcessingTime 8e-06s
attr unit s
par TwoMasterClocksRingGptpShowcase.tsnDevice4.gptp.domain[0] followUpInterval 7e-06s
attr unit s
scalar TwoMasterClocksRingGptpShowcase.tsnDevice4.gptp.domain[0] packetDropNotAddressedToUs:count 0
attr interpolationmode none
attr recordingmode count
attr source packetDropReasonIsNotAddressedToUs(packetDropped)
attr title "packet drop: not addressed to us, count"
scalar TwoMasterClocksRingGptpShowcase.tsnDevice4.gptp.domain[0] packetDropNotAddressedToUs:sum(packetBytes) 0
attr interpolationmode none
attr recordingmode sum(packetBytes)
attr source packetDropReasonIsNotAddressedToUs(packetDropped)
attr title "packet drop: not addressed to us, sum(packetBytes)"
par TwoMasterClocksRingGptpShowcase.tsnDevice4.gptp.domain[1] typename "\"inet.linklayer.ieee8021as.Gptp\""
par TwoMasterClocksRingGptpShowcase.tsnDevice4.gptp.domain[1] clockModule "\"tsnDevice4.clock.clock[1]\""
par TwoMasterClocksRingGptpShowcase.tsnDevice4.gptp.domain[1] interfaceTableModule "\"TwoMasterClocksRingGptpShowcase.tsnDevice4.interfaceTable\""
par TwoMasterClocksRingGptpShowcase.tsnDevice4.gptp.domain[1] gptpNodeType "\"SLAVE_NODE\""
par TwoMasterClocksRingGptpShowcase.tsnDevice4.gptp.domain[1] domainNumber 1
par TwoMasterClocksRingGptpShowcase.tsnDevice4.gptp.domain[1] slavePort "\"eth0\""
par TwoMasterClocksRingGptpShowcase.tsnDevice4.gptp.domain[1] masterPorts []
par TwoMasterClocksRingGptpShowcase.tsnDevice4.gptp.domain[1] correctionField 0s
attr unit s
par TwoMasterClocksRingGptpShowcase.tsnDevice4.gptp.domain[1] syncInterval 0.125s
attr unit s
par TwoMasterClocksRingGptpShowcase.tsnDevice4.gptp.domain[1] pdelayInterval 1s
attr unit s
par TwoMasterClocksRingGptpShowcase.tsnDevice4.gptp.domain[1] syncInitialOffset 0.0625s
attr unit s
par TwoMasterClocksRingGptpShowcase.tsnDevice4.gptp.domain[1] pdelayInitialOffset 0.0001s
attr unit s
par TwoMasterClocksRingGptpShowcase.tsnDevice4.gptp.domain[1] pDelayReqProcessingTime 8e-06s
attr unit s
par TwoMasterClocksRingGptpShowcase.tsnDevice4.gptp.domain[1] followUpInterval 7e-06s
attr unit s
scalar TwoMasterClocksRingGptpShowcase.tsnDevice4.gptp.domain[1] packetDropNotAddressedToUs:count 0
attr interpolationmode none
attr recordingmode count
attr source packetDropReasonIsNotAddressedToUs(packetDropped)
attr title "packet drop: not addressed to us, count"
scalar TwoMasterClocksRingGptpShowcase.tsnDevice4.gptp.domain[1] packetDropNotAddressedToUs:sum(packetBytes) 0
attr interpolationmode none
attr recordingmode sum(packetBytes)
attr source packetDropReasonIsNotAddressedToUs(packetDropped)
attr title "packet drop: not addressed to us, sum(packetBytes)"
par TwoMasterClocksRingGptpShowcase.tsnDevice4.gptp.domain[2] typename "\"inet.linklayer.ieee8021as.Gptp\""
par TwoMasterClocksRingGptpShowcase.tsnDevice4.gptp.domain[2] clockModule "\"tsnDevice4.clock.clock[2]\""
par TwoMasterClocksRingGptpShowcase.tsnDevice4.gptp.domain[2] interfaceTableModule "\"TwoMasterClocksRingGptpShowcase.tsnDevice4.interfaceTable\""
par TwoMasterClocksRingGptpShowcase.tsnDevice4.gptp.domain[2] gptpNodeType "\"SLAVE_NODE\""
par TwoMasterClocksRingGptpShowcase.tsnDevice4.gptp.domain[2] domainNumber 2
par TwoMasterClocksRingGptpShowcase.tsnDevice4.gptp.domain[2] slavePort "\"eth0\""
par TwoMasterClocksRingGptpShowcase.tsnDevice4.gptp.domain[2] masterPorts []
par TwoMasterClocksRingGptpShowcase.tsnDevice4.gptp.domain[2] correctionField 0s
attr unit s
par TwoMasterClocksRingGptpShowcase.tsnDevice4.gptp.domain[2] syncInterval 0.125s
attr unit s
par TwoMasterClocksRingGptpShowcase.tsnDevice4.gptp.domain[2] pdelayInterval 1s
attr unit s
par TwoMasterClocksRingGptpShowcase.tsnDevice4.gptp.domain[2] syncInitialOffset 0.09375s
attr unit s
par TwoMasterClocksRingGptpShowcase.tsnDevice4.gptp.domain[2] pdelayInitialOffset 0.0001s
attr unit s
par TwoMasterClocksRingGptpShowcase.tsnDevice4.gptp.domain[2] pDelayReqProcessingTime 8e-06s
attr unit s
par TwoMasterClocksRingGptpShowcase.tsnDevice4.gptp.domain[2] followUpInterval 7e-06s
attr unit s
scalar TwoMasterClocksRingGptpShowcase.tsnDevice4.gptp.domain[2] packetDropNotAddressedToUs:count 0
attr interpolationmode none
attr recordingmode count
attr source packetDropReasonIsNotAddressedToUs(packetDropped)
attr title "packet drop: not addressed to us, count"
scalar TwoMasterClocksRingGptpShowcase.tsnDevice4.gptp.domain[2] packetDropNotAddressedToUs:sum(packetBytes) 0
attr interpolationmode none
attr recordingmode sum(packetBytes)
attr source packetDropReasonIsNotAddressedToUs(packetDropped)
attr title "packet drop: not addressed to us, sum(packetBytes)"
par TwoMasterClocksRingGptpShowcase.tsnDevice4.gptp.domain[3] typename "\"inet.linklayer.ieee8021as.Gptp\""
par TwoMasterClocksRingGptpShowcase.tsnDevice4.gptp.domain[3] clockModule "\"tsnDevice4.clock.clock[3]\""
par TwoMasterClocksRingGptpShowcase.tsnDevice4.gptp.domain[3] interfaceTableModule "\"TwoMasterClocksRingGptpShowcase.tsnDevice4.interfaceTable\""
par TwoMasterClocksRingGptpShowcase.tsnDevice4.gptp.domain[3] gptpNodeType "\"SLAVE_NODE\""
par TwoMasterClocksRingGptpShowcase.tsnDevice4.gptp.domain[3] domainNumber 3
par TwoMasterClocksRingGptpShowcase.tsnDevice4.gptp.domain[3] slavePort "\"eth0\""
par TwoMasterClocksRingGptpShowcase.tsnDevice4.gptp.domain[3] masterPorts []
par TwoMasterClocksRingGptpShowcase.tsnDevice4.gptp.domain[3] correctionField 0s
attr unit s
par TwoMasterClocksRingGptpShowcase.tsnDevice4.gptp.domain[3] syncInterval 0.125s
attr unit s
par TwoMasterClocksRingGptpShowcase.tsnDevice4.gptp.domain[3] pdelayInterval 1s
attr unit s
par TwoMasterClocksRingGptpShowcase.tsnDevice4.gptp.domain[3] syncInitialOffset 0.125s
attr unit s
par TwoMasterClocksRingGptpShowcase.tsnDevice4.gptp.domain[3] pdelayInitialOffset 0.0001s
attr unit s
par TwoMasterClocksRingGptpShowcase.tsnDevice4.gptp.domain[3] pDelayReqProcessingTime 8e-06s
attr unit s
par TwoMasterClocksRingGptpShowcase.tsnDevice4.gptp.domain[3] followUpInterval 7e-06s
attr unit s
scalar TwoMasterClocksRingGptpShowcase.tsnDevice4.gptp.domain[3] packetDropNotAddressedToUs:count 0
attr interpolationmode none
attr recordingmode count
attr source packetDropReasonIsNotAddressedToUs(packetDropped)
attr title "packet drop: not addressed to us, count"
scalar TwoMasterClocksRingGptpShowcase.tsnDevice4.gptp.domain[3] packetDropNotAddressedToUs:sum(packetBytes) 0
attr interpolationmode none
attr recordingmode sum(packetBytes)
attr source packetDropReasonIsNotAddressedToUs(packetDropped)
attr title "packet drop: not addressed to us, sum(packetBytes)"
par TwoMasterClocksRingGptpShowcase.tsnDevice4.gptp.multiplexer typename "\"inet.queueing.common.PacketMultiplexer\""
par TwoMasterClocksRingGptpShowcase.tsnDevice4.gptp.multiplexer displayStringTextFormat "\"passed %p pk (%l)\""
par TwoMasterClocksRingGptpShowcase.tsnDevice4.gptp.multiplexer forwardServiceRegistration true
par TwoMasterClocksRingGptpShowcase.tsnDevice4.gptp.multiplexer forwardProtocolRegistration true
scalar TwoMasterClocksRingGptpShowcase.tsnDevice4.gptp.multiplexer packets:count 0
attr recordingmode count
attr source "merge(packetPushed, packetPulled)"
attr title "packets, count"
attr unit pk
scalar TwoMasterClocksRingGptpShowcase.tsnDevice4.gptp.multiplexer packetLengths:sum 0
attr interpolationmode none
attr recordingmode sum
attr source "packetLength(merge(packetPushed, packetPulled))"
attr title "packet lengths, sum"
attr unit b
statistic TwoMasterClocksRingGptpShowcase.tsnDevice4.gptp.multiplexer packetLengths:histogram
field count 0
field mean -nan
field stddev nan
field min nan
field max nan
field sum 0
field sqrsum 0
attr interpolationmode none
attr recordingmode histogram
attr source "packetLength(merge(packetPushed, packetPulled))"
attr title "packet lengths"
attr unit b
bin	-inf	0
bin	0	0
bin	1	0
par TwoMasterClocksRingGptpShowcase.tsnDevice4.gptp.classifier typename "\"inet.queueing.classifier.PacketClassifier\""
par TwoMasterClocksRingGptpShowcase.tsnDevice4.gptp.classifier displayStringTextFormat "\"classified %p pk (%l)\""
par TwoMasterClocksRingGptpShowcase.tsnDevice4.gptp.classifier reverseOrder false
par TwoMasterClocksRingGptpShowcase.tsnDevice4.gptp.classifier classifierClass "\"inet::GptpDomainNumberClassifier\""
scalar TwoMasterClocksRingGptpShowcase.tsnDevice4.gptp.classifier packets:count 222
attr recordingmode count
attr source packetPushed
attr title "packets, count"
attr unit pk
scalar TwoMasterClocksRingGptpShowcase.tsnDevice4.gptp.classifier packetLengths:sum 106544
attr interpolationmode none
attr recordingmode sum
attr source packetLength(packetPushed)
attr title "packet lengths, sum"
attr unit b
statistic TwoMasterClocksRingGptpShowcase.tsnDevice4.gptp.classifier packetLengths:histogram
field count 222
field mean 479.92792792793
field stddev 112.99875558613
field min 368
field max 608
field sum 106544
field sqrsum 53955328
attr interpolationmode none
attr recordingmode histogram
attr source packetLength(packetPushed)
attr title "packet lengths"
attr unit b
bin	-inf	0
bin	305	0
bin	310	0
bin	315	0
bin	320	0
bin	325	0
bin	330	0
bin	335	0
bin	340	0
bin	345	0
bin	350	0
bin	355	0
bin	360	0
bin	365	95
bin	370	0
bin	375	0
bin	380	0
bin	385	0
bin	390	0
bin	395	0
bin	400	0
bin	405	0
bin	410	0
bin	415	0
bin	420	0
bin	425	0
bin	430	32
bin	435	0
bin	440	0
bin	445	0
bin	450	0
bin	455	0
bin	460	0
bin	465	0
bin	470	0
bin	475	0
bin	480	0
bin	485	0
bin	490	0
bin	495	0
bin	500	0
bin	505	0
bin	510	0
bin	515	0
bin	520	0
bin	525	0
bin	530	0
bin	535	0
bin	540	0
bin	545	0
bin	550	0
bin	555	0
bin	560	0
bin	565	0
bin	570	0
bin	575	0
bin	580	0
bin	585	0
bin	590	0
bin	595	0
bin	600	0
bin	605	95
bin	610	0
bin	615	0
bin	620	0
bin	625	0
bin	630	0
bin	635	0
bin	640	0
bin	645	0
bin	650	0
bin	655	0
bin	660	0
bin	665	0
bin	670	0
par TwoMasterClocksRingGptpShowcase.tsnDevice4.gptp typename "\"inet.linklayer.ieee8021as.MultiDomainGptp\""
par TwoMasterClocksRingGptpShowcase.tsnDevice4.gptp clockModule "\"tsnDevice4.clock\""
par TwoMasterClocksRingGptpShowcase.tsnDevice4.gptp interfaceTableModule "\"TwoMasterClocksRingGptpShowcase.tsnDevice4.interfaceTable\""
par TwoMasterClocksRingGptpShowcase.tsnDevice4.gptp numDomains 4
par TwoMasterClocksRingGptpShowcase.tsnDevice4.gptp gptpNodeType "\"SLAVE_NODE\""
par TwoMasterClocksRingGptpShowcase.tsnDevice4 typename "\"inet.node.tsn.TsnDevice\""
par TwoMasterClocksRingGptpShowcase.tsnDevice4 hasStatus false
par TwoMasterClocksRingGptpShowcase.tsnDevice4 osgModel "\"\""
par TwoMasterClocksRingGptpShowcase.tsnDevice4 osgModelColor "\"\""
par TwoMasterClocksRingGptpShowcase.tsnDevice4 canvasImage "\"\""
par TwoMasterClocksRingGptpShowcase.tsnDevice4 canvasImageColor "\"\""
par TwoMasterClocksRingGptpShowcase.tsnDevice4 recordPcap false
par TwoMasterClocksRingGptpShowcase.tsnDevice4 numPcapRecorders 0
par TwoMasterClocksRingGptpShowcase.tsnDevice4 numLoInterfaces 1
par TwoMasterClocksRingGptpShowcase.tsnDevice4 numWlanInterfaces 0
par TwoMasterClocksRingGptpShowcase.tsnDevice4 numEthInterfaces 0
par TwoMasterClocksRingGptpShowcase.tsnDevice4 numPppInterfaces 0
par TwoMasterClocksRingGptpShowcase.tsnDevice4 numTunInterfaces 0
par TwoMasterClocksRingGptpShowcase.tsnDevice4 numVirtInterfaces 0
par TwoMasterClocksRingGptpShowcase.tsnDevice4 fcsMode "\"declared\""
attr enum declared,computed
par TwoMasterClocksRingGptpShowcase.tsnDevice4 hasIpv4 true
par TwoMasterClocksRingGptpShowcase.tsnDevice4 hasIpv6 false
par TwoMasterClocksRingGptpShowcase.tsnDevice4 hasGn false
par TwoMasterClocksRingGptpShowcase.tsnDevice4 forwarding false
par TwoMasterClocksRingGptpShowcase.tsnDevice4 multicastForwarding false
par TwoMasterClocksRingGptpShowcase.tsnDevice4 hasUdp true
par TwoMasterClocksRingGptpShowcase.tsnDevice4 hasTcp true
par TwoMasterClocksRingGptpShowcase.tsnDevice4 hasSctp false
par TwoMasterClocksRingGptpShowcase.tsnDevice4 numApps 0
par TwoMasterClocksRingGptpShowcase.tsnDevice4 hasTimeSynchronization true
par TwoMasterClocksRingGptpShowcase.tsnDevice4 hasIngressTrafficFiltering false
par TwoMasterClocksRingGptpShowcase.tsnDevice4 hasEgressTrafficFiltering false
par TwoMasterClocksRingGptpShowcase.tsnDevice4 hasEgressTrafficShaping false
par TwoMasterClocksRingGptpShowcase.tsnDevice4 hasStreamRedundancy false
par TwoMasterClocksRingGptpShowcase.tsnDevice4 hasIncomingStreams false
par TwoMasterClocksRingGptpShowcase.tsnDevice4 hasOutgoingStreams false
par TwoMasterClocksRingGptpShowcase.tsnDevice4 hasFramePreemption false
par TwoMasterClocksRingGptpShowcase.tsnDevice4 hasCutthroughSwitching false
par TwoMasterClocksRingGptpShowcase typename "\"inet.showcases.tsn.timesynchronization.gptp.TwoMasterClocksRingGptpShowcase\""
par TwoMasterClocksRingGptpShowcase recordPcap false
par TwoMasterClocksRingGptpShowcase numPcapRecorders 0
par TwoMasterClocksRingGptpShowcase hasGlobalArp true

