version 3
run RingTwoFailover-0-20250715-11:13:28-12289
attr configname RingTwoFailover
attr datetime 20250715-11:13:28
attr datetimef 20250715-111328
attr experiment RingTwoFailover
attr inifile omnetpp.ini
attr iterationvars ""
attr iterationvarsd ""
attr iterationvarsf ""
attr measurement ""
attr network TwoMasterClocksRingGptpShowcase
attr processid 12289
attr repetition 0
attr replication #0
attr resultdir results
attr runnumber 0
attr seedset 0
config image-path ../../../../images
config extends TwoMasterClocksExploitingNetworkRedundancy
config description "Ring topology with both master fail‑over"
config network TwoMasterClocksRingGptpShowcase
config experiment-label RingTwoFailover
config *.scenarioManager.typename ScenarioManager
config *.scenarioManager.script "xmldoc(\"failover2.xml\")"
config network TwoMasterClocksRingGptpShowcase
config description "Ring topology with redundant time synchronization domains"
config experiment-label RingTwoFailover
config *.tsnClock2.clock.typename MultiClock
config *.tsnClock2.clock.numClocks 2
config *.tsnClock*.gptp.typename MultiDomainGptp
config *.tsnClock1.gptp.numDomains 2
config *.tsnClock1.gptp.domain[0..1].clockModule "\"tsnClock1.clock\""
config *.tsnClock1.gptp.domain[0].masterPorts "[\"eth0\"]"
config *.tsnClock1.gptp.domain[1].masterPorts "[\"eth0\"]"
config *.tsnClock2.gptp.numDomains 4
config *.tsnClock2.gptp.domain[2..3].clockModule "\"tsnClock2.clock\""
config *.tsnClock2.gptp.domain[0].gptpNodeType "\"SLAVE_NODE\""
config *.tsnClock2.gptp.domain[0].slavePort "\"eth0\""
config *.tsnClock2.gptp.domain[1].gptpNodeType "\"SLAVE_NODE\""
config *.tsnClock2.gptp.domain[1].slavePort "\"eth0\""
config *.tsnClock2.gptp.domain[2].gptpNodeType "\"MASTER_NODE\""
config *.tsnClock2.gptp.domain[2].masterPorts "[\"eth0\"]"
config *.tsnClock2.gptp.domain[3].gptpNodeType "\"MASTER_NODE\""
config *.tsnClock2.gptp.domain[3].masterPorts "[\"eth0\"]"
config *.tsnSwitch*.clock.typename MultiClock
config *.tsnSwitch*.clock.numClocks 4
config *.tsnSwitch*.gptp.typename MultiDomainGptp
config *.tsnSwitch*.gptp.numDomains 4
config *.tsnSwitch1.gptp.domain[0].masterPorts "[\"eth1\"]"
config *.tsnSwitch1.gptp.domain[0].slavePort "\"eth0\""
config *.tsnSwitch1.gptp.domain[1].masterPorts "[\"eth2\"]"
config *.tsnSwitch1.gptp.domain[1].slavePort "\"eth0\""
config *.tsnSwitch1.gptp.domain[2].masterPorts "[\"eth1\"]"
config *.tsnSwitch1.gptp.domain[2].slavePort "\"eth2\""
config *.tsnSwitch1.gptp.domain[3].masterPorts "[\"eth2\"]"
config *.tsnSwitch1.gptp.domain[3].slavePort "\"eth1\""
config *.tsnSwitch2.gptp.domain[0].masterPorts "[\"eth1\", \"eth2\"]"
config *.tsnSwitch2.gptp.domain[0].slavePort "\"eth0\""
config *.tsnSwitch2.gptp.domain[1].masterPorts "[\"eth2\"]"
config *.tsnSwitch2.gptp.domain[1].slavePort "\"eth1\""
config *.tsnSwitch2.gptp.domain[2].masterPorts "[\"eth1\", \"eth2\"]"
config *.tsnSwitch2.gptp.domain[2].slavePort "\"eth0\""
config *.tsnSwitch2.gptp.domain[3].masterPorts "[\"eth0\", \"eth2\"]"
config *.tsnSwitch2.gptp.domain[3].slavePort "\"eth1\""
config *.tsnSwitch3.gptp.domain[0].masterPorts "[\"eth1\", \"eth2\"]"
config *.tsnSwitch3.gptp.domain[0].slavePort "\"eth0\""
config *.tsnSwitch3.gptp.domain[1].masterPorts "[\"eth0\", \"eth2\"]"
config *.tsnSwitch3.gptp.domain[1].slavePort "\"eth1\""
config *.tsnSwitch3.gptp.domain[2].masterPorts "[\"eth2\"]"
config *.tsnSwitch3.gptp.domain[2].slavePort "\"eth0\""
config *.tsnSwitch3.gptp.domain[3].masterPorts "[\"eth0\", \"eth2\"]"
config *.tsnSwitch3.gptp.domain[3].slavePort "\"eth1\""
config *.tsnSwitch4.gptp.domain[0].masterPorts "[\"eth0\", \"eth2\"]"
config *.tsnSwitch4.gptp.domain[0].slavePort "\"eth1\""
config *.tsnSwitch4.gptp.domain[1].masterPorts "[\"eth0\", \"eth1\"]"
config *.tsnSwitch4.gptp.domain[1].slavePort "\"eth2\""
config *.tsnSwitch4.gptp.domain[2].masterPorts "[\"eth2\"]"
config *.tsnSwitch4.gptp.domain[2].slavePort "\"eth0\""
config *.tsnSwitch4.gptp.domain[3].masterPorts "[\"eth1\"]"
config *.tsnSwitch4.gptp.domain[3].slavePort "\"eth0\""
config *.tsnSwitch5.gptp.domain[0].masterPorts "[\"eth1\", \"eth2\"]"
config *.tsnSwitch5.gptp.domain[0].slavePort "\"eth0\""
config *.tsnSwitch5.gptp.domain[1].masterPorts "[\"eth0\", \"eth2\"]"
config *.tsnSwitch5.gptp.domain[1].slavePort "\"eth1\""
config *.tsnSwitch5.gptp.domain[2].masterPorts "[\"eth1\", \"eth2\"]"
config *.tsnSwitch5.gptp.domain[2].slavePort "\"eth0\""
config *.tsnSwitch5.gptp.domain[3].masterPorts "[\"eth2\"]"
config *.tsnSwitch5.gptp.domain[3].slavePort "\"eth1\""
config *.tsnSwitch6.gptp.domain[0].masterPorts "[\"eth2\"]"
config *.tsnSwitch6.gptp.domain[0].slavePort "\"eth0\""
config *.tsnSwitch6.gptp.domain[1].masterPorts "[\"eth0\", \"eth2\"]"
config *.tsnSwitch6.gptp.domain[1].slavePort "\"eth1\""
config *.tsnSwitch6.gptp.domain[2].masterPorts "[\"eth1\", \"eth2\"]"
config *.tsnSwitch6.gptp.domain[2].slavePort "\"eth0\""
config *.tsnSwitch6.gptp.domain[3].masterPorts "[\"eth0\", \"eth2\"]"
config *.tsnSwitch6.gptp.domain[3].slavePort "\"eth1\""
config *.tsnDevice*.clock.typename MultiClock
config *.tsnDevice*.clock.numClocks 4
config *.tsnDevice*.gptp.typename MultiDomainGptp
config *.tsnDevice*.gptp.numDomains 4
config *.tsnDevice1.gptp.clockModule "\"tsnDevice1.clock\""
config *.tsnDevice2.gptp.clockModule "\"tsnDevice2.clock\""
config *.tsnDevice3.gptp.clockModule "\"tsnDevice3.clock\""
config *.tsnDevice4.gptp.clockModule "\"tsnDevice4.clock\""
config *.tsnDevice*.gptp.domain[*].slavePort "\"eth0\""
config **.pdelayInitialOffset 0.1ms
config *.*.gptp.domain[0].syncInitialOffset "syncInterval * 1 / 4"
config *.*.gptp.domain[1].syncInitialOffset "syncInterval * 2 / 4"
config *.*.gptp.domain[2].syncInitialOffset "syncInterval * 3 / 4"
config *.*.gptp.domain[3].syncInitialOffset "syncInterval * 4 / 4"
config *.visualizer.typename IntegratedMultiCanvasVisualizer
config *.visualizer.numDataLinkVisualizers 4
config *.visualizer.dataLinkVisualizer[*].displayLinks true
config *.visualizer.dataLinkVisualizer[*].activityLevel "\"protocol\""
config *.visualizer.dataLinkVisualizer[0].packetFilter "expr(has(GptpSync) && GptpSync.domainNumber == 0)"
config *.visualizer.dataLinkVisualizer[1].packetFilter "expr(has(GptpSync) && GptpSync.domainNumber == 1)"
config *.visualizer.dataLinkVisualizer[2].packetFilter "expr(has(GptpSync) && GptpSync.domainNumber == 2)"
config *.visualizer.dataLinkVisualizer[3].packetFilter "expr(has(GptpSync) && GptpSync.domainNumber == 3)"
config *.visualizer.dataLinkVisualizer[0].tags "\"primary GM domain0\""
config *.visualizer.dataLinkVisualizer[1].tags "\"primary GM domain1\""
config *.visualizer.dataLinkVisualizer[2].tags "\"hot-standby GM domain0\""
config *.visualizer.dataLinkVisualizer[3].tags "\"hot-standby GM domain1\""
config *.visualizer.dataLinkVisualizer[0].lineColor "\"blue4\""
config *.visualizer.dataLinkVisualizer[1].lineColor "\"blue1\""
config *.visualizer.dataLinkVisualizer[2].lineColor "\"red4\""
config *.visualizer.dataLinkVisualizer[3].lineColor "\"red1\""
config *.tsnClock1.clock.referenceClock "\"tsnClock1.clock\""
config *.tsnClock2.clock.clock[*].referenceClock "\"tsnClock1.clock\""
config *.tsnSwitch*.clock.clock[0..1].referenceClock "\"tsnClock1.clock\""
config *.tsnDevice*.clock.clock[0..1].referenceClock "\"tsnClock1.clock\""
config *.tsnSwitch*.clock.clock[2..3].referenceClock "\"tsnClock2.clock.clock[1]\""
config *.tsnDevice*.clock.clock[2..3].referenceClock "\"tsnClock2.clock.clock[1]\""
config *.tsnSwitch*.clock.clock[*].displayStringTextFormat "\"%d\""
config *.tsnDevice*.clock.clock[*].displayStringTextFormat "\"%d\""
config *.tsnClock1.clock.displayStringTextFormat "\"time: %T\""
config *.tsnClock2.clock.clock*.displayStringTextFormat "\"time: %T\\ndiff: %d\""
config *.visualizer.numInfoVisualizers 11
config *.visualizer.infoVisualizer[0].modules "\"*.tsnClock1.clock\""
config *.visualizer.infoVisualizer[0].textColor "\"blue4\""
config *.visualizer.infoVisualizer[1].modules "\"*.tsnSwitch1.*.clock[0] or *.tsnSwitch2.*.clock[0] or *.tsnSwitch6.*.clock[0] or *.tsnDevice1.*.clock[0] or *.tsnDevice4.*.clock[0]\""
config *.visualizer.infoVisualizer[1].textColor "\"blue4\""
config *.visualizer.infoVisualizer[2].modules "\"*.tsnSwitch1.*.clock[1] or *.tsnSwitch2.*.clock[1] or *.tsnSwitch6.*.clock[1] or *.tsnDevice1.*.clock[1] or *.tsnDevice4.*.clock[1]\""
config *.visualizer.infoVisualizer[2].textColor "\"blue1\""
config *.visualizer.infoVisualizer[3].modules "\"*.tsnSwitch1.*.clock[2] or *.tsnSwitch2.*.clock[2] or *.tsnSwitch6.*.clock[2] or *.tsnDevice1.*.clock[2] or *.tsnDevice4.*.clock[2]\""
config *.visualizer.infoVisualizer[3].textColor "\"red4\""
config *.visualizer.infoVisualizer[4].modules "\"*.tsnSwitch1.*.clock[3] or *.tsnSwitch2.*.clock[3] or *.tsnSwitch6.*.clock[3] or *.tsnDevice1.*.clock[3] or *.tsnDevice4.*.clock[3]\""
config *.visualizer.infoVisualizer[4].textColor "\"red1\""
config *.visualizer.infoVisualizer[5].modules "\"*.tsnDevice2.*.clock[0] or *.tsnDevice3.*.clock[0] or *.tsnSwitch3.*.clock[0] or *.tsnSwitch4.*.clock[0] or *.tsnSwitch5.*.clock[0]\""
config *.visualizer.infoVisualizer[5].textColor "\"blue4\""
config *.visualizer.infoVisualizer[6].modules "\"*.tsnDevice2.*.clock[1] or *.tsnDevice3.*.clock[1] or *.tsnSwitch3.*.clock[1] or *.tsnSwitch4.*.clock[1] or *.tsnSwitch5.*.clock[1]\""
config *.visualizer.infoVisualizer[6].textColor "\"blue1\""
config *.visualizer.infoVisualizer[7].modules "\"*.tsnDevice2.*.clock[2] or *.tsnDevice3.*.clock[2] or *.tsnSwitch3.*.clock[2] or *.tsnSwitch4.*.clock[2] or *.tsnSwitch5.*.clock[2]\""
config *.visualizer.infoVisualizer[7].textColor "\"red4\""
config *.visualizer.infoVisualizer[8].modules "\"*.tsnDevice2.*.clock[3] or *.tsnDevice3.*.clock[3] or *.tsnSwitch3.*.clock[3] or *.tsnSwitch4.*.clock[3] or *.tsnSwitch5.*.clock[3]\""
config *.visualizer.infoVisualizer[8].textColor "\"red1\""
config *.visualizer.infoVisualizer[9].modules "\"*.tsnClock2.*.clock[0]\""
config *.visualizer.infoVisualizer[9].textColor "\"red4\""
config *.visualizer.infoVisualizer[10].modules "\"*.tsnClock2.*.clock[1]\""
config *.visualizer.infoVisualizer[10].textColor "\"red1\""
config *.visualizer.infoVisualizer[5..10].placementHint "\"bottom\""
config experiment-label RingTwoFailover
config sim-time-limit 4s
config description abstract
config *.*.hasTimeSynchronization true
config **.tsnClock*.clock.oscillator.typename RandomDriftOscillator
config **.oscillator.changeInterval 12.5ms
config **.oscillator.driftRate "uniform(-100ppm, 100ppm)"
config **.oscillator.driftRateChange "uniform(-1ppm, 1ppm)"
config **.oscillator.driftRateChangeUpperLimit 100ppm
config **.oscillator.driftRateChangeLowerLimit -100ppm
config *.*.eth[*].bitrate 100Mbps
config *.visualizer.typename IntegratedMultiCanvasVisualizer
config *.visualizer.infoVisualizer[*].displayInfos true

vector 0 TwoMasterClocksRingGptpShowcase.tsnClock1.clock.oscillator driftRateChanged:vector ETV
attr interpolationmode sample-hold
attr recordingmode vector
attr title "Oscillator drift rate"
attr unit ppm
vector 1 TwoMasterClocksRingGptpShowcase.tsnClock1.clock timeChanged:vector ETV
attr interpolationmode linear
attr recordingmode vector
attr title "Clock time"
vector 2 TwoMasterClocksRingGptpShowcase.tsnClock1.ethernet.macHeaderInserter incomingPacketLengths:vector ETV
attr interpolationmode none
attr recordingmode vector
attr source "packetLength(merge(packetPushedIn, packetPulledIn))"
attr title "incoming packet lengths"
attr unit b
vector 3 TwoMasterClocksRingGptpShowcase.tsnClock1.ethernet.macHeaderInserter incomingDataRate:vector ETV
attr interpolationmode linear
attr recordingmode vector
attr source "throughput(merge(packetPushedIn, packetPulledIn))"
attr title "incoming data rate"
attr unit bps
vector 4 TwoMasterClocksRingGptpShowcase.tsnClock1.ethernet.macHeaderInserter outgoingPacketLengths:vector ETV
attr interpolationmode none
attr recordingmode vector
attr source "packetLength(merge(packetPushedOut, packetPulledOut))"
attr title "outgoing packet lengths"
attr unit b
vector 5 TwoMasterClocksRingGptpShowcase.tsnClock1.ethernet.macHeaderInserter outgoingDataRate:vector ETV
attr interpolationmode linear
attr recordingmode vector
attr source "throughput(merge(packetPushedOut, packetPulledOut))"
attr title "outgoing data rate"
attr unit bps
vector 6 TwoMasterClocksRingGptpShowcase.tsnClock1.ethernet.macHeaderInserter flowIncomingPacketLengths:vector ETV
attr interpolationmode none
attr recordingmode vector
attr source "packetLength(demuxFlow(merge(packetPushedIn, packetPulledIn)))"
attr title "flow specific incoming packet lengths"
attr unit b
vector 7 TwoMasterClocksRingGptpShowcase.tsnClock1.ethernet.macHeaderInserter flowIncomingDataRate:vector ETV
attr interpolationmode linear
attr recordingmode vector
attr source "throughput(demuxFlow(merge(packetPushedIn, packetPulledIn)))"
attr title "flow specific incoming data rate"
attr unit bps
vector 8 TwoMasterClocksRingGptpShowcase.tsnClock1.ethernet.macHeaderInserter flowOutgoingPacketLengths:vector ETV
attr interpolationmode none
attr recordingmode vector
attr source "packetLength(demuxFlow(merge(packetPushedOut, packetPulledOut)))"
attr title "flow specific outgoing packet lengths"
attr unit b
vector 9 TwoMasterClocksRingGptpShowcase.tsnClock1.ethernet.macHeaderInserter flowOutgoingDataRate:vector ETV
attr interpolationmode linear
attr recordingmode vector
attr source "throughput(demuxFlow(merge(packetPushedOut, packetPulledOut)))"
attr title "flow specific outgoing data rate"
attr unit bps
vector 10 TwoMasterClocksRingGptpShowcase.tsnClock1.ethernet.paddingInserter incomingPacketLengths:vector ETV
attr interpolationmode none
attr recordingmode vector
attr source "packetLength(merge(packetPushedIn, packetPulledIn))"
attr title "incoming packet lengths"
attr unit b
vector 11 TwoMasterClocksRingGptpShowcase.tsnClock1.ethernet.paddingInserter incomingDataRate:vector ETV
attr interpolationmode linear
attr recordingmode vector
attr source "throughput(merge(packetPushedIn, packetPulledIn))"
attr title "incoming data rate"
attr unit bps
vector 12 TwoMasterClocksRingGptpShowcase.tsnClock1.ethernet.paddingInserter outgoingPacketLengths:vector ETV
attr interpolationmode none
attr recordingmode vector
attr source "packetLength(merge(packetPushedOut, packetPulledOut))"
attr title "outgoing packet lengths"
attr unit b
vector 13 TwoMasterClocksRingGptpShowcase.tsnClock1.ethernet.paddingInserter outgoingDataRate:vector ETV
attr interpolationmode linear
attr recordingmode vector
attr source "throughput(merge(packetPushedOut, packetPulledOut))"
attr title "outgoing data rate"
attr unit bps
vector 14 TwoMasterClocksRingGptpShowcase.tsnClock1.ethernet.paddingInserter flowIncomingPacketLengths:vector ETV
attr interpolationmode none
attr recordingmode vector
attr source "packetLength(demuxFlow(merge(packetPushedIn, packetPulledIn)))"
attr title "flow specific incoming packet lengths"
attr unit b
vector 15 TwoMasterClocksRingGptpShowcase.tsnClock1.ethernet.paddingInserter flowIncomingDataRate:vector ETV
attr interpolationmode linear
attr recordingmode vector
attr source "throughput(demuxFlow(merge(packetPushedIn, packetPulledIn)))"
attr title "flow specific incoming data rate"
attr unit bps
vector 16 TwoMasterClocksRingGptpShowcase.tsnClock1.ethernet.paddingInserter flowOutgoingPacketLengths:vector ETV
attr interpolationmode none
attr recordingmode vector
attr source "packetLength(demuxFlow(merge(packetPushedOut, packetPulledOut)))"
attr title "flow specific outgoing packet lengths"
attr unit b
vector 17 TwoMasterClocksRingGptpShowcase.tsnClock1.ethernet.paddingInserter flowOutgoingDataRate:vector ETV
attr interpolationmode linear
attr recordingmode vector
attr source "throughput(demuxFlow(merge(packetPushedOut, packetPulledOut)))"
attr title "flow specific outgoing data rate"
attr unit bps
vector 18 TwoMasterClocksRingGptpShowcase.tsnClock1.ethernet.fcsInserter incomingPacketLengths:vector ETV
attr interpolationmode none
attr recordingmode vector
attr source "packetLength(merge(packetPushedIn, packetPulledIn))"
attr title "incoming packet lengths"
attr unit b
vector 19 TwoMasterClocksRingGptpShowcase.tsnClock1.ethernet.fcsInserter incomingDataRate:vector ETV
attr interpolationmode linear
attr recordingmode vector
attr source "throughput(merge(packetPushedIn, packetPulledIn))"
attr title "incoming data rate"
attr unit bps
vector 20 TwoMasterClocksRingGptpShowcase.tsnClock1.ethernet.fcsInserter outgoingPacketLengths:vector ETV
attr interpolationmode none
attr recordingmode vector
attr source "packetLength(merge(packetPushedOut, packetPulledOut))"
attr title "outgoing packet lengths"
attr unit b
vector 21 TwoMasterClocksRingGptpShowcase.tsnClock1.ethernet.fcsInserter outgoingDataRate:vector ETV
attr interpolationmode linear
attr recordingmode vector
attr source "throughput(merge(packetPushedOut, packetPulledOut))"
attr title "outgoing data rate"
attr unit bps
vector 22 TwoMasterClocksRingGptpShowcase.tsnClock1.ethernet.fcsInserter flowIncomingPacketLengths:vector ETV
attr interpolationmode none
attr recordingmode vector
attr source "packetLength(demuxFlow(merge(packetPushedIn, packetPulledIn)))"
attr title "flow specific incoming packet lengths"
attr unit b
vector 23 TwoMasterClocksRingGptpShowcase.tsnClock1.ethernet.fcsInserter flowIncomingDataRate:vector ETV
attr interpolationmode linear
attr recordingmode vector
attr source "throughput(demuxFlow(merge(packetPushedIn, packetPulledIn)))"
attr title "flow specific incoming data rate"
attr unit bps
vector 24 TwoMasterClocksRingGptpShowcase.tsnClock1.ethernet.fcsInserter flowOutgoingPacketLengths:vector ETV
attr interpolationmode none
attr recordingmode vector
attr source "packetLength(demuxFlow(merge(packetPushedOut, packetPulledOut)))"
attr title "flow specific outgoing packet lengths"
attr unit b
vector 25 TwoMasterClocksRingGptpShowcase.tsnClock1.ethernet.fcsInserter flowOutgoingDataRate:vector ETV
attr interpolationmode linear
attr recordingmode vector
attr source "throughput(demuxFlow(merge(packetPushedOut, packetPulledOut)))"
attr title "flow specific outgoing data rate"
attr unit bps
vector 26 TwoMasterClocksRingGptpShowcase.tsnClock1.ethernet.macHeaderChecker incomingPacketLengths:vector ETV
attr interpolationmode none
attr recordingmode vector
attr source "packetLength(merge(packetPushedIn, packetPulledIn))"
attr title "incoming packet lengths"
attr unit b
vector 27 TwoMasterClocksRingGptpShowcase.tsnClock1.ethernet.macHeaderChecker incomingDataRate:vector ETV
attr interpolationmode linear
attr recordingmode vector
attr source "throughput(merge(packetPushedIn, packetPulledIn))"
attr title "incoming data rate"
attr unit bps
vector 28 TwoMasterClocksRingGptpShowcase.tsnClock1.ethernet.macHeaderChecker outgoingPacketLengths:vector ETV
attr interpolationmode none
attr recordingmode vector
attr source "packetLength(merge(packetPushedOut, packetPulledOut))"
attr title "outgoing packet lengths"
attr unit b
vector 29 TwoMasterClocksRingGptpShowcase.tsnClock1.ethernet.macHeaderChecker outgoingDataRate:vector ETV
attr interpolationmode linear
attr recordingmode vector
attr source "throughput(merge(packetPushedOut, packetPulledOut))"
attr title "outgoing data rate"
attr unit bps
vector 30 TwoMasterClocksRingGptpShowcase.tsnClock1.ethernet.macHeaderChecker droppedPacketLengths:vector ETV
attr interpolationmode none
attr recordingmode vector
attr source packetLength(packetDropped)
attr title "dropped packet lengths"
attr unit b
vector 31 TwoMasterClocksRingGptpShowcase.tsnClock1.ethernet.macHeaderChecker droppedDataRate:vector ETV
attr interpolationmode linear
attr recordingmode vector
attr source throughput(packetDropped)
attr title "dropped data rate"
attr unit bps
vector 32 TwoMasterClocksRingGptpShowcase.tsnClock1.ethernet.macHeaderChecker flowIncomingPacketLengths:vector ETV
attr interpolationmode none
attr recordingmode vector
attr source "packetLength(demuxFlow(merge(packetPushedIn, packetPulledIn)))"
attr title "flow specific incoming packet lengths"
attr unit b
vector 33 TwoMasterClocksRingGptpShowcase.tsnClock1.ethernet.macHeaderChecker flowIncomingDataRate:vector ETV
attr interpolationmode linear
attr recordingmode vector
attr source "throughput(demuxFlow(merge(packetPushedIn, packetPulledIn)))"
attr title "flow specific incoming data rate"
attr unit bps
vector 34 TwoMasterClocksRingGptpShowcase.tsnClock1.ethernet.macHeaderChecker flowOutgoingPacketLengths:vector ETV
attr interpolationmode none
attr recordingmode vector
attr source "packetLength(demuxFlow(merge(packetPushedOut, packetPulledOut)))"
attr title "flow specific outgoing packet lengths"
attr unit b
vector 35 TwoMasterClocksRingGptpShowcase.tsnClock1.ethernet.macHeaderChecker flowOutgoingDataRate:vector ETV
attr interpolationmode linear
attr recordingmode vector
attr source "throughput(demuxFlow(merge(packetPushedOut, packetPulledOut)))"
attr title "flow specific outgoing data rate"
attr unit bps
vector 36 TwoMasterClocksRingGptpShowcase.tsnClock1.ethernet.macHeaderChecker flowDroppedPacketLengths:vector ETV
attr interpolationmode none
attr recordingmode vector
attr source packetLength(demuxFlow(packetDropped))
attr title "flow specific dropped packet lengths"
attr unit b
vector 37 TwoMasterClocksRingGptpShowcase.tsnClock1.ethernet.macHeaderChecker flowDroppedDataRate:vector ETV
attr interpolationmode linear
attr recordingmode vector
attr source throughput(demuxFlow(packetDropped))
attr title "flow specific dropped data rate"
attr unit bps
vector 38 TwoMasterClocksRingGptpShowcase.tsnClock1.ethernet.fcsChecker incomingPacketLengths:vector ETV
attr interpolationmode none
attr recordingmode vector
attr source "packetLength(merge(packetPushedIn, packetPulledIn))"
attr title "incoming packet lengths"
attr unit b
vector 39 TwoMasterClocksRingGptpShowcase.tsnClock1.ethernet.fcsChecker incomingDataRate:vector ETV
attr interpolationmode linear
attr recordingmode vector
attr source "throughput(merge(packetPushedIn, packetPulledIn))"
attr title "incoming data rate"
attr unit bps
vector 40 TwoMasterClocksRingGptpShowcase.tsnClock1.ethernet.fcsChecker outgoingPacketLengths:vector ETV
attr interpolationmode none
attr recordingmode vector
attr source "packetLength(merge(packetPushedOut, packetPulledOut))"
attr title "outgoing packet lengths"
attr unit b
vector 41 TwoMasterClocksRingGptpShowcase.tsnClock1.ethernet.fcsChecker outgoingDataRate:vector ETV
attr interpolationmode linear
attr recordingmode vector
attr source "throughput(merge(packetPushedOut, packetPulledOut))"
attr title "outgoing data rate"
attr unit bps
vector 42 TwoMasterClocksRingGptpShowcase.tsnClock1.ethernet.fcsChecker droppedPacketLengths:vector ETV
attr interpolationmode none
attr recordingmode vector
attr source packetLength(packetDropped)
attr title "dropped packet lengths"
attr unit b
vector 43 TwoMasterClocksRingGptpShowcase.tsnClock1.ethernet.fcsChecker droppedDataRate:vector ETV
attr interpolationmode linear
attr recordingmode vector
attr source throughput(packetDropped)
attr title "dropped data rate"
attr unit bps
vector 44 TwoMasterClocksRingGptpShowcase.tsnClock1.ethernet.fcsChecker flowIncomingPacketLengths:vector ETV
attr interpolationmode none
attr recordingmode vector
attr source "packetLength(demuxFlow(merge(packetPushedIn, packetPulledIn)))"
attr title "flow specific incoming packet lengths"
attr unit b
vector 45 TwoMasterClocksRingGptpShowcase.tsnClock1.ethernet.fcsChecker flowIncomingDataRate:vector ETV
attr interpolationmode linear
attr recordingmode vector
attr source "throughput(demuxFlow(merge(packetPushedIn, packetPulledIn)))"
attr title "flow specific incoming data rate"
attr unit bps
vector 46 TwoMasterClocksRingGptpShowcase.tsnClock1.ethernet.fcsChecker flowOutgoingPacketLengths:vector ETV
attr interpolationmode none
attr recordingmode vector
attr source "packetLength(demuxFlow(merge(packetPushedOut, packetPulledOut)))"
attr title "flow specific outgoing packet lengths"
attr unit b
vector 47 TwoMasterClocksRingGptpShowcase.tsnClock1.ethernet.fcsChecker flowOutgoingDataRate:vector ETV
attr interpolationmode linear
attr recordingmode vector
attr source "throughput(demuxFlow(merge(packetPushedOut, packetPulledOut)))"
attr title "flow specific outgoing data rate"
attr unit bps
vector 48 TwoMasterClocksRingGptpShowcase.tsnClock1.ethernet.fcsChecker flowDroppedPacketLengths:vector ETV
attr interpolationmode none
attr recordingmode vector
attr source packetLength(demuxFlow(packetDropped))
attr title "flow specific dropped packet lengths"
attr unit b
vector 49 TwoMasterClocksRingGptpShowcase.tsnClock1.ethernet.fcsChecker flowDroppedDataRate:vector ETV
attr interpolationmode linear
attr recordingmode vector
attr source throughput(demuxFlow(packetDropped))
attr title "flow specific dropped data rate"
attr unit bps
vector 50 TwoMasterClocksRingGptpShowcase.tsnClock1.lo[0].lo rcvdPkFromHl:vector(packetBytes) ETV
attr interpolationmode none
attr recordingmode vector(packetBytes)
attr source packetReceivedFromUpper
attr title "packets received from higher layer, packetBytes"
vector 51 TwoMasterClocksRingGptpShowcase.tsnClock1.lo[0].lo passedUpPk:vector(packetBytes) ETV
attr interpolationmode none
attr recordingmode vector(packetBytes)
attr source packetSentToUpper
attr title "packets passed to higher layer, packetBytes"
vector 52 TwoMasterClocksRingGptpShowcase.tsnClock1.lo[0] packetDropInterfaceDown:vector(packetBytes) ETV
attr interpolationmode none
attr recordingmode vector(packetBytes)
attr source packetDropReasonIsInterfaceDown(packetDropped)
attr title "packet drops: interface down, packetBytes"
vector 53 TwoMasterClocksRingGptpShowcase.tsnClock1.lo[0] packetDropNoCarrier:vector(packetBytes) ETV
attr interpolationmode none
attr recordingmode vector(packetBytes)
attr source packetDropReasonIsNoCarrier(packetDropped)
attr title "packet drops: no carrier, packetBytes"
vector 54 TwoMasterClocksRingGptpShowcase.tsnClock1.eth[0].macLayer.queue queueLength:vector ETV
attr autoWarmupFilter false
attr interpolationmode sample-hold
attr recordingmode vector
attr source "warmup(atomic(constant0(packetPushEnded) + count(packetPushStarted) - count(packetPulled) - count(packetRemoved) - count(packetDropped)))"
attr title "queue length"
attr unit pk
vector 55 TwoMasterClocksRingGptpShowcase.tsnClock1.eth[0].macLayer.queue queueBitLength:vector ETV
attr autoWarmupFilter false
attr interpolationmode sample-hold
attr recordingmode vector
attr source "warmup(atomic(constant0(packetPushEnded) + sum(packetLength(packetPushStarted)) - sum(packetLength(packetPulled)) - sum(packetLength(packetRemoved)) - sum(packetLength(packetDropped))))"
attr title "queue bit length"
attr unit b
vector 56 TwoMasterClocksRingGptpShowcase.tsnClock1.eth[0].macLayer.queue queueingTime:vector ETV
attr interpolationmode none
attr recordingmode vector
attr source queueingTime(packetPulled)
attr title "queueing times"
attr unit s
vector 57 TwoMasterClocksRingGptpShowcase.tsnClock1.eth[0].macLayer.queue incomingPacketLengths:vector ETV
attr interpolationmode none
attr recordingmode vector
attr source packetLength(packetPushStarted)
attr title "incoming packet lengths"
attr unit b
vector 58 TwoMasterClocksRingGptpShowcase.tsnClock1.eth[0].macLayer.queue incomingDataRate:vector ETV
attr interpolationmode linear
attr recordingmode vector
attr source throughput(packetPushStarted)
attr title "incoming datarate"
attr unit bps
vector 59 TwoMasterClocksRingGptpShowcase.tsnClock1.eth[0].macLayer.queue outgoingPacketLengths:vector ETV
attr interpolationmode none
attr recordingmode vector
attr source packetLength(packetPulled)
attr title "outgoing packet lengths"
attr unit b
vector 60 TwoMasterClocksRingGptpShowcase.tsnClock1.eth[0].macLayer.queue outgoingDataRate:vector ETV
attr interpolationmode linear
attr recordingmode vector
attr source throughput(packetPulled)
attr title "outgoing datarate"
attr unit bps
vector 61 TwoMasterClocksRingGptpShowcase.tsnClock1.eth[0].macLayer.queue droppedPacketLengthsQueueOverflow:vector ETV
attr interpolationmode none
attr recordingmode vector
attr source packetLength(packetDropReasonIsQueueOverflow(packetDropped))
attr title "dropped packet lengths: queue overflow"
attr unit b
vector 62 TwoMasterClocksRingGptpShowcase.tsnClock1.eth[0].macLayer.queue flowQueueingTime:vector ETV
attr interpolationmode none
attr recordingmode vector
attr source queueingTime(demuxFlow(packetPulled))
attr title "flow queueing times"
attr unit s
vector 63 TwoMasterClocksRingGptpShowcase.tsnClock1.eth[0].macLayer.queue flowIncomingDataRate:vector ETV
attr interpolationmode linear
attr recordingmode vector
attr source throughput(flowPacketLength(demuxFlow(packetPushStarted)))
attr title "flow specific incoming data rate"
attr unit bps
vector 64 TwoMasterClocksRingGptpShowcase.tsnClock1.eth[0].macLayer.queue flowOutgoingDataRate:vector ETV
attr interpolationmode linear
attr recordingmode vector
attr source throughput(flowPacketLength(demuxFlow(packetPulled)))
attr title "flow specific outgoing data rate"
attr unit bps
vector 65 TwoMasterClocksRingGptpShowcase.tsnClock1.eth[0].macLayer.server incomingPacketLengths:vector ETV
attr interpolationmode none
attr recordingmode vector
attr source packetLength(packetPulled)
attr title "incoming packet lengths"
attr unit b
vector 66 TwoMasterClocksRingGptpShowcase.tsnClock1.eth[0].macLayer.server incomingDataRate:vector ETV
attr interpolationmode linear
attr recordingmode vector
attr source throughput(packetPulled)
attr title "incoming datarate"
attr unit bps
vector 67 TwoMasterClocksRingGptpShowcase.tsnClock1.eth[0].macLayer.server outgoingPacketLengths:vector ETV
attr interpolationmode none
attr recordingmode vector
attr source packetLength(packetPushed)
attr title "outgoing packet lengths"
attr unit b
vector 68 TwoMasterClocksRingGptpShowcase.tsnClock1.eth[0].macLayer.server outgoingDataRate:vector ETV
attr interpolationmode linear
attr recordingmode vector
attr source throughput(packetPushed)
attr title "outgoing datarate"
attr unit bps
vector 69 TwoMasterClocksRingGptpShowcase.tsnClock1.eth[0].macLayer.outboundEmitter incomingPacketLengths:vector ETV
attr interpolationmode none
attr recordingmode vector
attr source "packetLength(merge(packetPushedIn, packetPulledIn))"
attr title "incoming packet lengths"
attr unit b
vector 70 TwoMasterClocksRingGptpShowcase.tsnClock1.eth[0].macLayer.outboundEmitter incomingDataRate:vector ETV
attr interpolationmode linear
attr recordingmode vector
attr source "throughput(merge(packetPushedIn, packetPulledIn))"
attr title "incoming data rate"
attr unit bps
vector 71 TwoMasterClocksRingGptpShowcase.tsnClock1.eth[0].macLayer.outboundEmitter outgoingPacketLengths:vector ETV
attr interpolationmode none
attr recordingmode vector
attr source "packetLength(merge(packetPushedOut, packetPulledOut))"
attr title "outgoing packet lengths"
attr unit b
vector 72 TwoMasterClocksRingGptpShowcase.tsnClock1.eth[0].macLayer.outboundEmitter outgoingDataRate:vector ETV
attr interpolationmode linear
attr recordingmode vector
attr source "throughput(merge(packetPushedOut, packetPulledOut))"
attr title "outgoing data rate"
attr unit bps
vector 73 TwoMasterClocksRingGptpShowcase.tsnClock1.eth[0].macLayer.outboundEmitter flowIncomingPacketLengths:vector ETV
attr interpolationmode none
attr recordingmode vector
attr source "packetLength(demuxFlow(merge(packetPushedIn, packetPulledIn)))"
attr title "flow specific incoming packet lengths"
attr unit b
vector 74 TwoMasterClocksRingGptpShowcase.tsnClock1.eth[0].macLayer.outboundEmitter flowIncomingDataRate:vector ETV
attr interpolationmode linear
attr recordingmode vector
attr source "throughput(demuxFlow(merge(packetPushedIn, packetPulledIn)))"
attr title "flow specific incoming data rate"
attr unit bps
vector 75 TwoMasterClocksRingGptpShowcase.tsnClock1.eth[0].macLayer.outboundEmitter flowOutgoingPacketLengths:vector ETV
attr interpolationmode none
attr recordingmode vector
attr source "packetLength(demuxFlow(merge(packetPushedOut, packetPulledOut)))"
attr title "flow specific outgoing packet lengths"
attr unit b
vector 76 TwoMasterClocksRingGptpShowcase.tsnClock1.eth[0].macLayer.outboundEmitter flowOutgoingDataRate:vector ETV
attr interpolationmode linear
attr recordingmode vector
attr source "throughput(demuxFlow(merge(packetPushedOut, packetPulledOut)))"
attr title "flow specific outgoing data rate"
attr unit bps
vector 77 TwoMasterClocksRingGptpShowcase.tsnClock1.eth[0].macLayer.fcsChecker incomingPacketLengths:vector ETV
attr interpolationmode none
attr recordingmode vector
attr source "packetLength(merge(packetPushedIn, packetPulledIn))"
attr title "incoming packet lengths"
attr unit b
vector 78 TwoMasterClocksRingGptpShowcase.tsnClock1.eth[0].macLayer.fcsChecker incomingDataRate:vector ETV
attr interpolationmode linear
attr recordingmode vector
attr source "throughput(merge(packetPushedIn, packetPulledIn))"
attr title "incoming data rate"
attr unit bps
vector 79 TwoMasterClocksRingGptpShowcase.tsnClock1.eth[0].macLayer.fcsChecker outgoingPacketLengths:vector ETV
attr interpolationmode none
attr recordingmode vector
attr source "packetLength(merge(packetPushedOut, packetPulledOut))"
attr title "outgoing packet lengths"
attr unit b
vector 80 TwoMasterClocksRingGptpShowcase.tsnClock1.eth[0].macLayer.fcsChecker outgoingDataRate:vector ETV
attr interpolationmode linear
attr recordingmode vector
attr source "throughput(merge(packetPushedOut, packetPulledOut))"
attr title "outgoing data rate"
attr unit bps
vector 81 TwoMasterClocksRingGptpShowcase.tsnClock1.eth[0].macLayer.fcsChecker droppedPacketLengths:vector ETV
attr interpolationmode none
attr recordingmode vector
attr source packetLength(packetDropped)
attr title "dropped packet lengths"
attr unit b
vector 82 TwoMasterClocksRingGptpShowcase.tsnClock1.eth[0].macLayer.fcsChecker droppedDataRate:vector ETV
attr interpolationmode linear
attr recordingmode vector
attr source throughput(packetDropped)
attr title "dropped data rate"
attr unit bps
vector 83 TwoMasterClocksRingGptpShowcase.tsnClock1.eth[0].macLayer.fcsChecker flowIncomingPacketLengths:vector ETV
attr interpolationmode none
attr recordingmode vector
attr source "packetLength(demuxFlow(merge(packetPushedIn, packetPulledIn)))"
attr title "flow specific incoming packet lengths"
attr unit b
vector 84 TwoMasterClocksRingGptpShowcase.tsnClock1.eth[0].macLayer.fcsChecker flowIncomingDataRate:vector ETV
attr interpolationmode linear
attr recordingmode vector
attr source "throughput(demuxFlow(merge(packetPushedIn, packetPulledIn)))"
attr title "flow specific incoming data rate"
attr unit bps
vector 85 TwoMasterClocksRingGptpShowcase.tsnClock1.eth[0].macLayer.fcsChecker flowOutgoingPacketLengths:vector ETV
attr interpolationmode none
attr recordingmode vector
attr source "packetLength(demuxFlow(merge(packetPushedOut, packetPulledOut)))"
attr title "flow specific outgoing packet lengths"
attr unit b
vector 86 TwoMasterClocksRingGptpShowcase.tsnClock1.eth[0].macLayer.fcsChecker flowOutgoingDataRate:vector ETV
attr interpolationmode linear
attr recordingmode vector
attr source "throughput(demuxFlow(merge(packetPushedOut, packetPulledOut)))"
attr title "flow specific outgoing data rate"
attr unit bps
vector 87 TwoMasterClocksRingGptpShowcase.tsnClock1.eth[0].macLayer.fcsChecker flowDroppedPacketLengths:vector ETV
attr interpolationmode none
attr recordingmode vector
attr source packetLength(demuxFlow(packetDropped))
attr title "flow specific dropped packet lengths"
attr unit b
vector 88 TwoMasterClocksRingGptpShowcase.tsnClock1.eth[0].macLayer.fcsChecker flowDroppedDataRate:vector ETV
attr interpolationmode linear
attr recordingmode vector
attr source throughput(demuxFlow(packetDropped))
attr title "flow specific dropped data rate"
attr unit bps
vector 89 TwoMasterClocksRingGptpShowcase.tsnClock1.eth[0].macLayer.inboundEmitter incomingPacketLengths:vector ETV
attr interpolationmode none
attr recordingmode vector
attr source "packetLength(merge(packetPushedIn, packetPulledIn))"
attr title "incoming packet lengths"
attr unit b
vector 90 TwoMasterClocksRingGptpShowcase.tsnClock1.eth[0].macLayer.inboundEmitter incomingDataRate:vector ETV
attr interpolationmode linear
attr recordingmode vector
attr source "throughput(merge(packetPushedIn, packetPulledIn))"
attr title "incoming data rate"
attr unit bps
vector 91 TwoMasterClocksRingGptpShowcase.tsnClock1.eth[0].macLayer.inboundEmitter outgoingPacketLengths:vector ETV
attr interpolationmode none
attr recordingmode vector
attr source "packetLength(merge(packetPushedOut, packetPulledOut))"
attr title "outgoing packet lengths"
attr unit b
vector 92 TwoMasterClocksRingGptpShowcase.tsnClock1.eth[0].macLayer.inboundEmitter outgoingDataRate:vector ETV
attr interpolationmode linear
attr recordingmode vector
attr source "throughput(merge(packetPushedOut, packetPulledOut))"
attr title "outgoing data rate"
attr unit bps
vector 93 TwoMasterClocksRingGptpShowcase.tsnClock1.eth[0].macLayer.inboundEmitter flowIncomingPacketLengths:vector ETV
attr interpolationmode none
attr recordingmode vector
attr source "packetLength(demuxFlow(merge(packetPushedIn, packetPulledIn)))"
attr title "flow specific incoming packet lengths"
attr unit b
vector 94 TwoMasterClocksRingGptpShowcase.tsnClock1.eth[0].macLayer.inboundEmitter flowIncomingDataRate:vector ETV
attr interpolationmode linear
attr recordingmode vector
attr source "throughput(demuxFlow(merge(packetPushedIn, packetPulledIn)))"
attr title "flow specific incoming data rate"
attr unit bps
vector 95 TwoMasterClocksRingGptpShowcase.tsnClock1.eth[0].macLayer.inboundEmitter flowOutgoingPacketLengths:vector ETV
attr interpolationmode none
attr recordingmode vector
attr source "packetLength(demuxFlow(merge(packetPushedOut, packetPulledOut)))"
attr title "flow specific outgoing packet lengths"
attr unit b
vector 96 TwoMasterClocksRingGptpShowcase.tsnClock1.eth[0].macLayer.inboundEmitter flowOutgoingDataRate:vector ETV
attr interpolationmode linear
attr recordingmode vector
attr source "throughput(demuxFlow(merge(packetPushedOut, packetPulledOut)))"
attr title "flow specific outgoing data rate"
attr unit bps
vector 97 TwoMasterClocksRingGptpShowcase.tsnClock1.eth[0].phyLayer.phyHeaderInserter incomingPacketLengths:vector ETV
attr interpolationmode none
attr recordingmode vector
attr source "packetLength(merge(packetPushedIn, packetPulledIn))"
attr title "incoming packet lengths"
attr unit b
vector 98 TwoMasterClocksRingGptpShowcase.tsnClock1.eth[0].phyLayer.phyHeaderInserter incomingDataRate:vector ETV
attr interpolationmode linear
attr recordingmode vector
attr source "throughput(merge(packetPushedIn, packetPulledIn))"
attr title "incoming data rate"
attr unit bps
vector 99 TwoMasterClocksRingGptpShowcase.tsnClock1.eth[0].phyLayer.phyHeaderInserter outgoingPacketLengths:vector ETV
attr interpolationmode none
attr recordingmode vector
attr source "packetLength(merge(packetPushedOut, packetPulledOut))"
attr title "outgoing packet lengths"
attr unit b
vector 100 TwoMasterClocksRingGptpShowcase.tsnClock1.eth[0].phyLayer.phyHeaderInserter outgoingDataRate:vector ETV
attr interpolationmode linear
attr recordingmode vector
attr source "throughput(merge(packetPushedOut, packetPulledOut))"
attr title "outgoing data rate"
attr unit bps
vector 101 TwoMasterClocksRingGptpShowcase.tsnClock1.eth[0].phyLayer.phyHeaderInserter flowIncomingPacketLengths:vector ETV
attr interpolationmode none
attr recordingmode vector
attr source "packetLength(demuxFlow(merge(packetPushedIn, packetPulledIn)))"
attr title "flow specific incoming packet lengths"
attr unit b
vector 102 TwoMasterClocksRingGptpShowcase.tsnClock1.eth[0].phyLayer.phyHeaderInserter flowIncomingDataRate:vector ETV
attr interpolationmode linear
attr recordingmode vector
attr source "throughput(demuxFlow(merge(packetPushedIn, packetPulledIn)))"
attr title "flow specific incoming data rate"
attr unit bps
vector 103 TwoMasterClocksRingGptpShowcase.tsnClock1.eth[0].phyLayer.phyHeaderInserter flowOutgoingPacketLengths:vector ETV
attr interpolationmode none
attr recordingmode vector
attr source "packetLength(demuxFlow(merge(packetPushedOut, packetPulledOut)))"
attr title "flow specific outgoing packet lengths"
attr unit b
vector 104 TwoMasterClocksRingGptpShowcase.tsnClock1.eth[0].phyLayer.phyHeaderInserter flowOutgoingDataRate:vector ETV
attr interpolationmode linear
attr recordingmode vector
attr source "throughput(demuxFlow(merge(packetPushedOut, packetPulledOut)))"
attr title "flow specific outgoing data rate"
attr unit bps
vector 105 TwoMasterClocksRingGptpShowcase.tsnClock1.eth[0].phyLayer.interFrameGapInserter interpacketGap:vector ETV
attr interpolationmode sample-hold
attr recordingmode vector
attr source "count(interpacketGapStarted) - count(interpacketGapEnded)"
attr title "interpacket gap state"
attr type int
vector 106 TwoMasterClocksRingGptpShowcase.tsnClock1.eth[0].phyLayer.outboundEmitter incomingPacketLengths:vector ETV
attr interpolationmode none
attr recordingmode vector
attr source "packetLength(merge(packetPushedIn, packetPulledIn))"
attr title "incoming packet lengths"
attr unit b
vector 107 TwoMasterClocksRingGptpShowcase.tsnClock1.eth[0].phyLayer.outboundEmitter incomingDataRate:vector ETV
attr interpolationmode linear
attr recordingmode vector
attr source "throughput(merge(packetPushedIn, packetPulledIn))"
attr title "incoming data rate"
attr unit bps
vector 108 TwoMasterClocksRingGptpShowcase.tsnClock1.eth[0].phyLayer.outboundEmitter outgoingPacketLengths:vector ETV
attr interpolationmode none
attr recordingmode vector
attr source "packetLength(merge(packetPushedOut, packetPulledOut))"
attr title "outgoing packet lengths"
attr unit b
vector 109 TwoMasterClocksRingGptpShowcase.tsnClock1.eth[0].phyLayer.outboundEmitter outgoingDataRate:vector ETV
attr interpolationmode linear
attr recordingmode vector
attr source "throughput(merge(packetPushedOut, packetPulledOut))"
attr title "outgoing data rate"
attr unit bps
vector 110 TwoMasterClocksRingGptpShowcase.tsnClock1.eth[0].phyLayer.outboundEmitter flowIncomingPacketLengths:vector ETV
attr interpolationmode none
attr recordingmode vector
attr source "packetLength(demuxFlow(merge(packetPushedIn, packetPulledIn)))"
attr title "flow specific incoming packet lengths"
attr unit b
vector 111 TwoMasterClocksRingGptpShowcase.tsnClock1.eth[0].phyLayer.outboundEmitter flowIncomingDataRate:vector ETV
attr interpolationmode linear
attr recordingmode vector
attr source "throughput(demuxFlow(merge(packetPushedIn, packetPulledIn)))"
attr title "flow specific incoming data rate"
attr unit bps
vector 112 TwoMasterClocksRingGptpShowcase.tsnClock1.eth[0].phyLayer.outboundEmitter flowOutgoingPacketLengths:vector ETV
attr interpolationmode none
attr recordingmode vector
attr source "packetLength(demuxFlow(merge(packetPushedOut, packetPulledOut)))"
attr title "flow specific outgoing packet lengths"
attr unit b
vector 113 TwoMasterClocksRingGptpShowcase.tsnClock1.eth[0].phyLayer.outboundEmitter flowOutgoingDataRate:vector ETV
attr interpolationmode linear
attr recordingmode vector
attr source "throughput(demuxFlow(merge(packetPushedOut, packetPulledOut)))"
attr title "flow specific outgoing data rate"
attr unit bps
vector 114 TwoMasterClocksRingGptpShowcase.tsnClock1.eth[0].phyLayer.transmitter transmitting:vector ETV
attr interpolationmode sample-hold
attr recordingmode vector
attr source "count(transmissionStarted) - count(transmissionEnded)"
attr title "transmitting state"
attr type int
vector 115 TwoMasterClocksRingGptpShowcase.tsnClock1.eth[0].phyLayer.transmitter throughput:vector ETV
attr interpolationmode linear
attr recordingmode vector
attr source throughput(transmissionEnded)
attr title throughput
attr unit bps
vector 116 TwoMasterClocksRingGptpShowcase.tsnClock1.eth[0].phyLayer.transmitter utilization:vector ETV
attr interpolationmode linear
attr recordingmode vector
attr source "100 * utilization(count(transmissionStarted) - count(transmissionEnded))"
attr title utilization
attr unit %
vector 117 TwoMasterClocksRingGptpShowcase.tsnClock1.eth[0].phyLayer.transmitter transmissionTime:vector ETV
attr interpolationmode none
attr recordingmode vector
attr source packetDuration(transmissionEnded)
attr title "transmission time"
attr unit s
vector 118 TwoMasterClocksRingGptpShowcase.tsnClock1.eth[0].phyLayer.transmitter flowTransmissionTime:vector ETV
attr interpolationmode none
attr recordingmode vector
attr source packetDuration(demuxFlow(transmissionEnded))
attr title "flow transmission time"
attr unit s
vector 119 TwoMasterClocksRingGptpShowcase.tsnClock1.eth[0].phyLayer.phyHeaderChecker incomingPacketLengths:vector ETV
attr interpolationmode none
attr recordingmode vector
attr source "packetLength(merge(packetPushedIn, packetPulledIn))"
attr title "incoming packet lengths"
attr unit b
vector 120 TwoMasterClocksRingGptpShowcase.tsnClock1.eth[0].phyLayer.phyHeaderChecker incomingDataRate:vector ETV
attr interpolationmode linear
attr recordingmode vector
attr source "throughput(merge(packetPushedIn, packetPulledIn))"
attr title "incoming data rate"
attr unit bps
vector 121 TwoMasterClocksRingGptpShowcase.tsnClock1.eth[0].phyLayer.phyHeaderChecker outgoingPacketLengths:vector ETV
attr interpolationmode none
attr recordingmode vector
attr source "packetLength(merge(packetPushedOut, packetPulledOut))"
attr title "outgoing packet lengths"
attr unit b
vector 122 TwoMasterClocksRingGptpShowcase.tsnClock1.eth[0].phyLayer.phyHeaderChecker outgoingDataRate:vector ETV
attr interpolationmode linear
attr recordingmode vector
attr source "throughput(merge(packetPushedOut, packetPulledOut))"
attr title "outgoing data rate"
attr unit bps
vector 123 TwoMasterClocksRingGptpShowcase.tsnClock1.eth[0].phyLayer.phyHeaderChecker droppedPacketLengths:vector ETV
attr interpolationmode none
attr recordingmode vector
attr source packetLength(packetDropped)
attr title "dropped packet lengths"
attr unit b
vector 124 TwoMasterClocksRingGptpShowcase.tsnClock1.eth[0].phyLayer.phyHeaderChecker droppedDataRate:vector ETV
attr interpolationmode linear
attr recordingmode vector
attr source throughput(packetDropped)
attr title "dropped data rate"
attr unit bps
vector 125 TwoMasterClocksRingGptpShowcase.tsnClock1.eth[0].phyLayer.phyHeaderChecker flowIncomingPacketLengths:vector ETV
attr interpolationmode none
attr recordingmode vector
attr source "packetLength(demuxFlow(merge(packetPushedIn, packetPulledIn)))"
attr title "flow specific incoming packet lengths"
attr unit b
vector 126 TwoMasterClocksRingGptpShowcase.tsnClock1.eth[0].phyLayer.phyHeaderChecker flowIncomingDataRate:vector ETV
attr interpolationmode linear
attr recordingmode vector
attr source "throughput(demuxFlow(merge(packetPushedIn, packetPulledIn)))"
attr title "flow specific incoming data rate"
attr unit bps
vector 127 TwoMasterClocksRingGptpShowcase.tsnClock1.eth[0].phyLayer.phyHeaderChecker flowOutgoingPacketLengths:vector ETV
attr interpolationmode none
attr recordingmode vector
attr source "packetLength(demuxFlow(merge(packetPushedOut, packetPulledOut)))"
attr title "flow specific outgoing packet lengths"
attr unit b
vector 128 TwoMasterClocksRingGptpShowcase.tsnClock1.eth[0].phyLayer.phyHeaderChecker flowOutgoingDataRate:vector ETV
attr interpolationmode linear
attr recordingmode vector
attr source "throughput(demuxFlow(merge(packetPushedOut, packetPulledOut)))"
attr title "flow specific outgoing data rate"
attr unit bps
vector 129 TwoMasterClocksRingGptpShowcase.tsnClock1.eth[0].phyLayer.phyHeaderChecker flowDroppedPacketLengths:vector ETV
attr interpolationmode none
attr recordingmode vector
attr source packetLength(demuxFlow(packetDropped))
attr title "flow specific dropped packet lengths"
attr unit b
vector 130 TwoMasterClocksRingGptpShowcase.tsnClock1.eth[0].phyLayer.phyHeaderChecker flowDroppedDataRate:vector ETV
attr interpolationmode linear
attr recordingmode vector
attr source throughput(demuxFlow(packetDropped))
attr title "flow specific dropped data rate"
attr unit bps
vector 131 TwoMasterClocksRingGptpShowcase.tsnClock1.eth[0].phyLayer.inboundEmitter incomingPacketLengths:vector ETV
attr interpolationmode none
attr recordingmode vector
attr source "packetLength(merge(packetPushedIn, packetPulledIn))"
attr title "incoming packet lengths"
attr unit b
vector 132 TwoMasterClocksRingGptpShowcase.tsnClock1.eth[0].phyLayer.inboundEmitter incomingDataRate:vector ETV
attr interpolationmode linear
attr recordingmode vector
attr source "throughput(merge(packetPushedIn, packetPulledIn))"
attr title "incoming data rate"
attr unit bps
vector 133 TwoMasterClocksRingGptpShowcase.tsnClock1.eth[0].phyLayer.inboundEmitter outgoingPacketLengths:vector ETV
attr interpolationmode none
attr recordingmode vector
attr source "packetLength(merge(packetPushedOut, packetPulledOut))"
attr title "outgoing packet lengths"
attr unit b
vector 134 TwoMasterClocksRingGptpShowcase.tsnClock1.eth[0].phyLayer.inboundEmitter outgoingDataRate:vector ETV
attr interpolationmode linear
attr recordingmode vector
attr source "throughput(merge(packetPushedOut, packetPulledOut))"
attr title "outgoing data rate"
attr unit bps
vector 135 TwoMasterClocksRingGptpShowcase.tsnClock1.eth[0].phyLayer.inboundEmitter flowIncomingPacketLengths:vector ETV
attr interpolationmode none
attr recordingmode vector
attr source "packetLength(demuxFlow(merge(packetPushedIn, packetPulledIn)))"
attr title "flow specific incoming packet lengths"
attr unit b
vector 136 TwoMasterClocksRingGptpShowcase.tsnClock1.eth[0].phyLayer.inboundEmitter flowIncomingDataRate:vector ETV
attr interpolationmode linear
attr recordingmode vector
attr source "throughput(demuxFlow(merge(packetPushedIn, packetPulledIn)))"
attr title "flow specific incoming data rate"
attr unit bps
vector 137 TwoMasterClocksRingGptpShowcase.tsnClock1.eth[0].phyLayer.inboundEmitter flowOutgoingPacketLengths:vector ETV
attr interpolationmode none
attr recordingmode vector
attr source "packetLength(demuxFlow(merge(packetPushedOut, packetPulledOut)))"
attr title "flow specific outgoing packet lengths"
attr unit b
vector 138 TwoMasterClocksRingGptpShowcase.tsnClock1.eth[0].phyLayer.inboundEmitter flowOutgoingDataRate:vector ETV
attr interpolationmode linear
attr recordingmode vector
attr source "throughput(demuxFlow(merge(packetPushedOut, packetPulledOut)))"
attr title "flow specific outgoing data rate"
attr unit bps
vector 139 TwoMasterClocksRingGptpShowcase.tsnClock1.eth[0].phyLayer.receiver throughput:vector ETV
attr interpolationmode linear
attr recordingmode vector
attr source throughput(receptionEnded)
attr title throughput
attr unit bps
vector 140 TwoMasterClocksRingGptpShowcase.tsnClock1.eth[0].phyLayer.receiver receptionTime:vector ETV
attr interpolationmode none
attr recordingmode vector
attr source packetDuration(receptionEnded)
attr title "reception time"
attr unit s
vector 141 TwoMasterClocksRingGptpShowcase.tsnClock1.eth[0].phyLayer.receiver flowReceptionTime:vector ETV
attr interpolationmode none
attr recordingmode vector
attr source packetDuration(demuxFlow(receptionEnded))
attr title "flow reception time"
attr unit s
vector 142 TwoMasterClocksRingGptpShowcase.tsnClock1.eth[0] packetDropInterfaceDown:vector(packetBytes) ETV
attr interpolationmode none
attr recordingmode vector(packetBytes)
attr source packetDropReasonIsInterfaceDown(packetDropped)
attr title "packet drops: interface down, packetBytes"
vector 143 TwoMasterClocksRingGptpShowcase.tsnClock1.eth[0] packetDropNoCarrier:vector(packetBytes) ETV
attr interpolationmode none
attr recordingmode vector(packetBytes)
attr source packetDropReasonIsNoCarrier(packetDropped)
attr title "packet drops: no carrier, packetBytes"
vector 144 TwoMasterClocksRingGptpShowcase.tsnClock1.ipv4.ip packetDropAddressResolutionFailed:vector(packetBytes) ETV
attr interpolationmode none
attr recordingmode vector(packetBytes)
attr source packetDropReasonIsAddressResolutionFailed(packetDropped)
attr title "packet drop: address resolution failed, packetBytes"
vector 145 TwoMasterClocksRingGptpShowcase.tsnClock1.ipv4.ip packetDropHopLimitReached:vector(packetBytes) ETV
attr interpolationmode none
attr recordingmode vector(packetBytes)
attr source packetDropReasonIsHopLimitReached(packetDropped)
attr title "packet drop: hop limit reached, packetBytes"
vector 146 TwoMasterClocksRingGptpShowcase.tsnClock1.ipv4.ip packetDropForwardingDisabled:vector(packetBytes) ETV
attr interpolationmode none
attr recordingmode vector(packetBytes)
attr source packetDropReasonIsForwardingDisabled(packetDropped)
attr title "packet drop: forwarding disabled, packetBytes"
vector 147 TwoMasterClocksRingGptpShowcase.tsnClock1.ipv4.ip packetDropNoInterfaceFound:vector(packetBytes) ETV
attr interpolationmode none
attr recordingmode vector(packetBytes)
attr source packetDropReasonIsNoInterfaceFound(packetDropped)
attr title "packet drop: no interface found, packetBytes"
vector 148 TwoMasterClocksRingGptpShowcase.tsnClock1.ipv4.ip packetDropNoRouteFound:vector(packetBytes) ETV
attr interpolationmode none
attr recordingmode vector(packetBytes)
attr source packetDropReasonIsNoRouteFound(packetDropped)
attr title "packet drop: no route found, packetBytes"
vector 149 TwoMasterClocksRingGptpShowcase.tsnClock1.ipv4.ip packetDropUndefined:vector(packetBytes) ETV
attr interpolationmode none
attr recordingmode vector(packetBytes)
attr source packetDropReasonIsUndefined(packetDropped)
attr title "packet drop: undefined, packetBytes"
vector 150 TwoMasterClocksRingGptpShowcase.tsnClock1.udp packetSent:vector(packetBytes) ETV
attr interpolationmode none
attr recordingmode vector(packetBytes)
attr source packetSent
attr title "packets sent, packetBytes"
vector 151 TwoMasterClocksRingGptpShowcase.tsnClock1.udp packetReceived:vector(packetBytes) ETV
attr interpolationmode none
attr recordingmode vector(packetBytes)
attr source packetReceived
attr title "packets received, packetBytes"
vector 152 TwoMasterClocksRingGptpShowcase.tsnClock1.udp passedUpPk:vector(count) ETV
attr interpolationmode none
attr recordingmode vector(count)
attr source packetSentToUpper
attr title "packets passed up, count"
vector 153 TwoMasterClocksRingGptpShowcase.tsnClock1.udp droppedPkWrongPort:vector(count) ETV
attr interpolationmode none
attr recordingmode vector(count)
attr source packetDropReasonIsNoPortFound(packetDropped)
attr title "packets dropped (wrong port), count"
vector 154 TwoMasterClocksRingGptpShowcase.tsnClock1.udp droppedPkBadChecksum:vector(count) ETV
attr interpolationmode none
attr recordingmode vector(count)
attr source packetDropReasonIsIncorrectlyReceived(packetDropped)
attr title "packets dropped (checksum error), count"
vector 155 TwoMasterClocksRingGptpShowcase.tsnClock1.gptp.domain[0] localTime:vector ETV
attr interpolationmode linear
attr recordingmode vector
vector 156 TwoMasterClocksRingGptpShowcase.tsnClock1.gptp.domain[0] timeDifference:vector ETV
attr interpolationmode linear
attr recordingmode vector
vector 157 TwoMasterClocksRingGptpShowcase.tsnClock1.gptp.domain[0] rateRatio:vector ETV
attr interpolationmode sample-hold
attr recordingmode vector
vector 158 TwoMasterClocksRingGptpShowcase.tsnClock1.gptp.domain[0] peerDelay:vector ETV
attr interpolationmode sample-hold
attr recordingmode vector
vector 159 TwoMasterClocksRingGptpShowcase.tsnClock1.gptp.domain[0] packetDropNotAddressedToUs:vector(packetBytes) ETV
attr interpolationmode none
attr recordingmode vector(packetBytes)
attr source packetDropReasonIsNotAddressedToUs(packetDropped)
attr title "packet drop: not addressed to us, packetBytes"
vector 160 TwoMasterClocksRingGptpShowcase.tsnClock1.gptp.domain[1] localTime:vector ETV
attr interpolationmode linear
attr recordingmode vector
vector 161 TwoMasterClocksRingGptpShowcase.tsnClock1.gptp.domain[1] timeDifference:vector ETV
attr interpolationmode linear
attr recordingmode vector
vector 162 TwoMasterClocksRingGptpShowcase.tsnClock1.gptp.domain[1] rateRatio:vector ETV
attr interpolationmode sample-hold
attr recordingmode vector
vector 163 TwoMasterClocksRingGptpShowcase.tsnClock1.gptp.domain[1] peerDelay:vector ETV
attr interpolationmode sample-hold
attr recordingmode vector
vector 164 TwoMasterClocksRingGptpShowcase.tsnClock1.gptp.domain[1] packetDropNotAddressedToUs:vector(packetBytes) ETV
attr interpolationmode none
attr recordingmode vector(packetBytes)
attr source packetDropReasonIsNotAddressedToUs(packetDropped)
attr title "packet drop: not addressed to us, packetBytes"
vector 165 TwoMasterClocksRingGptpShowcase.tsnClock1.gptp.multiplexer packetLengths:vector ETV
attr interpolationmode none
attr recordingmode vector
attr source "packetLength(merge(packetPushed, packetPulled))"
attr title "packet lengths"
attr unit b
vector 166 TwoMasterClocksRingGptpShowcase.tsnClock1.gptp.multiplexer dataRate:vector ETV
attr interpolationmode linear
attr recordingmode vector
attr source "throughput(merge(packetPushed, packetPulled))"
attr title "data rate"
attr unit bps
vector 167 TwoMasterClocksRingGptpShowcase.tsnClock1.gptp.classifier packetLengths:vector ETV
attr interpolationmode none
attr recordingmode vector
attr source packetLength(packetPushed)
attr title "packet lengths"
attr unit b
vector 168 TwoMasterClocksRingGptpShowcase.tsnClock1.gptp.classifier dataRate:vector ETV
attr interpolationmode linear
attr recordingmode vector
attr source throughput(packetPushed)
attr title "data rate"
attr unit bps
vector 169 TwoMasterClocksRingGptpShowcase.tsnClock2.clock.clock[0].oscillator driftRateChanged:vector ETV
attr interpolationmode sample-hold
attr recordingmode vector
attr title "Oscillator drift rate"
attr unit ppm
vector 170 TwoMasterClocksRingGptpShowcase.tsnClock2.clock.clock[0] timeChanged:vector ETV
attr interpolationmode linear
attr recordingmode vector
attr title "Clock time"
vector 171 TwoMasterClocksRingGptpShowcase.tsnClock2.clock.clock[1].oscillator driftRateChanged:vector ETV
attr interpolationmode sample-hold
attr recordingmode vector
attr title "Oscillator drift rate"
attr unit ppm
vector 172 TwoMasterClocksRingGptpShowcase.tsnClock2.clock.clock[1] timeChanged:vector ETV
attr interpolationmode linear
attr recordingmode vector
attr title "Clock time"
vector 173 TwoMasterClocksRingGptpShowcase.tsnClock2.clock timeChanged:vector ETV
attr interpolationmode linear
attr recordingmode vector
attr source localSignal(timeChanged)
attr title "Clock time"
vector 174 TwoMasterClocksRingGptpShowcase.tsnClock2.ethernet.macHeaderInserter incomingPacketLengths:vector ETV
attr interpolationmode none
attr recordingmode vector
attr source "packetLength(merge(packetPushedIn, packetPulledIn))"
attr title "incoming packet lengths"
attr unit b
vector 175 TwoMasterClocksRingGptpShowcase.tsnClock2.ethernet.macHeaderInserter incomingDataRate:vector ETV
attr interpolationmode linear
attr recordingmode vector
attr source "throughput(merge(packetPushedIn, packetPulledIn))"
attr title "incoming data rate"
attr unit bps
vector 176 TwoMasterClocksRingGptpShowcase.tsnClock2.ethernet.macHeaderInserter outgoingPacketLengths:vector ETV
attr interpolationmode none
attr recordingmode vector
attr source "packetLength(merge(packetPushedOut, packetPulledOut))"
attr title "outgoing packet lengths"
attr unit b
vector 177 TwoMasterClocksRingGptpShowcase.tsnClock2.ethernet.macHeaderInserter outgoingDataRate:vector ETV
attr interpolationmode linear
attr recordingmode vector
attr source "throughput(merge(packetPushedOut, packetPulledOut))"
attr title "outgoing data rate"
attr unit bps
vector 178 TwoMasterClocksRingGptpShowcase.tsnClock2.ethernet.macHeaderInserter flowIncomingPacketLengths:vector ETV
attr interpolationmode none
attr recordingmode vector
attr source "packetLength(demuxFlow(merge(packetPushedIn, packetPulledIn)))"
attr title "flow specific incoming packet lengths"
attr unit b
vector 179 TwoMasterClocksRingGptpShowcase.tsnClock2.ethernet.macHeaderInserter flowIncomingDataRate:vector ETV
attr interpolationmode linear
attr recordingmode vector
attr source "throughput(demuxFlow(merge(packetPushedIn, packetPulledIn)))"
attr title "flow specific incoming data rate"
attr unit bps
vector 180 TwoMasterClocksRingGptpShowcase.tsnClock2.ethernet.macHeaderInserter flowOutgoingPacketLengths:vector ETV
attr interpolationmode none
attr recordingmode vector
attr source "packetLength(demuxFlow(merge(packetPushedOut, packetPulledOut)))"
attr title "flow specific outgoing packet lengths"
attr unit b
vector 181 TwoMasterClocksRingGptpShowcase.tsnClock2.ethernet.macHeaderInserter flowOutgoingDataRate:vector ETV
attr interpolationmode linear
attr recordingmode vector
attr source "throughput(demuxFlow(merge(packetPushedOut, packetPulledOut)))"
attr title "flow specific outgoing data rate"
attr unit bps
vector 182 TwoMasterClocksRingGptpShowcase.tsnClock2.ethernet.paddingInserter incomingPacketLengths:vector ETV
attr interpolationmode none
attr recordingmode vector
attr source "packetLength(merge(packetPushedIn, packetPulledIn))"
attr title "incoming packet lengths"
attr unit b
vector 183 TwoMasterClocksRingGptpShowcase.tsnClock2.ethernet.paddingInserter incomingDataRate:vector ETV
attr interpolationmode linear
attr recordingmode vector
attr source "throughput(merge(packetPushedIn, packetPulledIn))"
attr title "incoming data rate"
attr unit bps
vector 184 TwoMasterClocksRingGptpShowcase.tsnClock2.ethernet.paddingInserter outgoingPacketLengths:vector ETV
attr interpolationmode none
attr recordingmode vector
attr source "packetLength(merge(packetPushedOut, packetPulledOut))"
attr title "outgoing packet lengths"
attr unit b
vector 185 TwoMasterClocksRingGptpShowcase.tsnClock2.ethernet.paddingInserter outgoingDataRate:vector ETV
attr interpolationmode linear
attr recordingmode vector
attr source "throughput(merge(packetPushedOut, packetPulledOut))"
attr title "outgoing data rate"
attr unit bps
vector 186 TwoMasterClocksRingGptpShowcase.tsnClock2.ethernet.paddingInserter flowIncomingPacketLengths:vector ETV
attr interpolationmode none
attr recordingmode vector
attr source "packetLength(demuxFlow(merge(packetPushedIn, packetPulledIn)))"
attr title "flow specific incoming packet lengths"
attr unit b
vector 187 TwoMasterClocksRingGptpShowcase.tsnClock2.ethernet.paddingInserter flowIncomingDataRate:vector ETV
attr interpolationmode linear
attr recordingmode vector
attr source "throughput(demuxFlow(merge(packetPushedIn, packetPulledIn)))"
attr title "flow specific incoming data rate"
attr unit bps
vector 188 TwoMasterClocksRingGptpShowcase.tsnClock2.ethernet.paddingInserter flowOutgoingPacketLengths:vector ETV
attr interpolationmode none
attr recordingmode vector
attr source "packetLength(demuxFlow(merge(packetPushedOut, packetPulledOut)))"
attr title "flow specific outgoing packet lengths"
attr unit b
vector 189 TwoMasterClocksRingGptpShowcase.tsnClock2.ethernet.paddingInserter flowOutgoingDataRate:vector ETV
attr interpolationmode linear
attr recordingmode vector
attr source "throughput(demuxFlow(merge(packetPushedOut, packetPulledOut)))"
attr title "flow specific outgoing data rate"
attr unit bps
vector 190 TwoMasterClocksRingGptpShowcase.tsnClock2.ethernet.fcsInserter incomingPacketLengths:vector ETV
attr interpolationmode none
attr recordingmode vector
attr source "packetLength(merge(packetPushedIn, packetPulledIn))"
attr title "incoming packet lengths"
attr unit b
vector 191 TwoMasterClocksRingGptpShowcase.tsnClock2.ethernet.fcsInserter incomingDataRate:vector ETV
attr interpolationmode linear
attr recordingmode vector
attr source "throughput(merge(packetPushedIn, packetPulledIn))"
attr title "incoming data rate"
attr unit bps
vector 192 TwoMasterClocksRingGptpShowcase.tsnClock2.ethernet.fcsInserter outgoingPacketLengths:vector ETV
attr interpolationmode none
attr recordingmode vector
attr source "packetLength(merge(packetPushedOut, packetPulledOut))"
attr title "outgoing packet lengths"
attr unit b
vector 193 TwoMasterClocksRingGptpShowcase.tsnClock2.ethernet.fcsInserter outgoingDataRate:vector ETV
attr interpolationmode linear
attr recordingmode vector
attr source "throughput(merge(packetPushedOut, packetPulledOut))"
attr title "outgoing data rate"
attr unit bps
vector 194 TwoMasterClocksRingGptpShowcase.tsnClock2.ethernet.fcsInserter flowIncomingPacketLengths:vector ETV
attr interpolationmode none
attr recordingmode vector
attr source "packetLength(demuxFlow(merge(packetPushedIn, packetPulledIn)))"
attr title "flow specific incoming packet lengths"
attr unit b
vector 195 TwoMasterClocksRingGptpShowcase.tsnClock2.ethernet.fcsInserter flowIncomingDataRate:vector ETV
attr interpolationmode linear
attr recordingmode vector
attr source "throughput(demuxFlow(merge(packetPushedIn, packetPulledIn)))"
attr title "flow specific incoming data rate"
attr unit bps
vector 196 TwoMasterClocksRingGptpShowcase.tsnClock2.ethernet.fcsInserter flowOutgoingPacketLengths:vector ETV
attr interpolationmode none
attr recordingmode vector
attr source "packetLength(demuxFlow(merge(packetPushedOut, packetPulledOut)))"
attr title "flow specific outgoing packet lengths"
attr unit b
vector 197 TwoMasterClocksRingGptpShowcase.tsnClock2.ethernet.fcsInserter flowOutgoingDataRate:vector ETV
attr interpolationmode linear
attr recordingmode vector
attr source "throughput(demuxFlow(merge(packetPushedOut, packetPulledOut)))"
attr title "flow specific outgoing data rate"
attr unit bps
vector 198 TwoMasterClocksRingGptpShowcase.tsnClock2.ethernet.macHeaderChecker incomingPacketLengths:vector ETV
attr interpolationmode none
attr recordingmode vector
attr source "packetLength(merge(packetPushedIn, packetPulledIn))"
attr title "incoming packet lengths"
attr unit b
vector 199 TwoMasterClocksRingGptpShowcase.tsnClock2.ethernet.macHeaderChecker incomingDataRate:vector ETV
attr interpolationmode linear
attr recordingmode vector
attr source "throughput(merge(packetPushedIn, packetPulledIn))"
attr title "incoming data rate"
attr unit bps
vector 200 TwoMasterClocksRingGptpShowcase.tsnClock2.ethernet.macHeaderChecker outgoingPacketLengths:vector ETV
attr interpolationmode none
attr recordingmode vector
attr source "packetLength(merge(packetPushedOut, packetPulledOut))"
attr title "outgoing packet lengths"
attr unit b
vector 201 TwoMasterClocksRingGptpShowcase.tsnClock2.ethernet.macHeaderChecker outgoingDataRate:vector ETV
attr interpolationmode linear
attr recordingmode vector
attr source "throughput(merge(packetPushedOut, packetPulledOut))"
attr title "outgoing data rate"
attr unit bps
vector 202 TwoMasterClocksRingGptpShowcase.tsnClock2.ethernet.macHeaderChecker droppedPacketLengths:vector ETV
attr interpolationmode none
attr recordingmode vector
attr source packetLength(packetDropped)
attr title "dropped packet lengths"
attr unit b
vector 203 TwoMasterClocksRingGptpShowcase.tsnClock2.ethernet.macHeaderChecker droppedDataRate:vector ETV
attr interpolationmode linear
attr recordingmode vector
attr source throughput(packetDropped)
attr title "dropped data rate"
attr unit bps
vector 204 TwoMasterClocksRingGptpShowcase.tsnClock2.ethernet.macHeaderChecker flowIncomingPacketLengths:vector ETV
attr interpolationmode none
attr recordingmode vector
attr source "packetLength(demuxFlow(merge(packetPushedIn, packetPulledIn)))"
attr title "flow specific incoming packet lengths"
attr unit b
vector 205 TwoMasterClocksRingGptpShowcase.tsnClock2.ethernet.macHeaderChecker flowIncomingDataRate:vector ETV
attr interpolationmode linear
attr recordingmode vector
attr source "throughput(demuxFlow(merge(packetPushedIn, packetPulledIn)))"
attr title "flow specific incoming data rate"
attr unit bps
vector 206 TwoMasterClocksRingGptpShowcase.tsnClock2.ethernet.macHeaderChecker flowOutgoingPacketLengths:vector ETV
attr interpolationmode none
attr recordingmode vector
attr source "packetLength(demuxFlow(merge(packetPushedOut, packetPulledOut)))"
attr title "flow specific outgoing packet lengths"
attr unit b
vector 207 TwoMasterClocksRingGptpShowcase.tsnClock2.ethernet.macHeaderChecker flowOutgoingDataRate:vector ETV
attr interpolationmode linear
attr recordingmode vector
attr source "throughput(demuxFlow(merge(packetPushedOut, packetPulledOut)))"
attr title "flow specific outgoing data rate"
attr unit bps
vector 208 TwoMasterClocksRingGptpShowcase.tsnClock2.ethernet.macHeaderChecker flowDroppedPacketLengths:vector ETV
attr interpolationmode none
attr recordingmode vector
attr source packetLength(demuxFlow(packetDropped))
attr title "flow specific dropped packet lengths"
attr unit b
vector 209 TwoMasterClocksRingGptpShowcase.tsnClock2.ethernet.macHeaderChecker flowDroppedDataRate:vector ETV
attr interpolationmode linear
attr recordingmode vector
attr source throughput(demuxFlow(packetDropped))
attr title "flow specific dropped data rate"
attr unit bps
vector 210 TwoMasterClocksRingGptpShowcase.tsnClock2.ethernet.fcsChecker incomingPacketLengths:vector ETV
attr interpolationmode none
attr recordingmode vector
attr source "packetLength(merge(packetPushedIn, packetPulledIn))"
attr title "incoming packet lengths"
attr unit b
vector 211 TwoMasterClocksRingGptpShowcase.tsnClock2.ethernet.fcsChecker incomingDataRate:vector ETV
attr interpolationmode linear
attr recordingmode vector
attr source "throughput(merge(packetPushedIn, packetPulledIn))"
attr title "incoming data rate"
attr unit bps
vector 212 TwoMasterClocksRingGptpShowcase.tsnClock2.ethernet.fcsChecker outgoingPacketLengths:vector ETV
attr interpolationmode none
attr recordingmode vector
attr source "packetLength(merge(packetPushedOut, packetPulledOut))"
attr title "outgoing packet lengths"
attr unit b
vector 213 TwoMasterClocksRingGptpShowcase.tsnClock2.ethernet.fcsChecker outgoingDataRate:vector ETV
attr interpolationmode linear
attr recordingmode vector
attr source "throughput(merge(packetPushedOut, packetPulledOut))"
attr title "outgoing data rate"
attr unit bps
vector 214 TwoMasterClocksRingGptpShowcase.tsnClock2.ethernet.fcsChecker droppedPacketLengths:vector ETV
attr interpolationmode none
attr recordingmode vector
attr source packetLength(packetDropped)
attr title "dropped packet lengths"
attr unit b
vector 215 TwoMasterClocksRingGptpShowcase.tsnClock2.ethernet.fcsChecker droppedDataRate:vector ETV
attr interpolationmode linear
attr recordingmode vector
attr source throughput(packetDropped)
attr title "dropped data rate"
attr unit bps
vector 216 TwoMasterClocksRingGptpShowcase.tsnClock2.ethernet.fcsChecker flowIncomingPacketLengths:vector ETV
attr interpolationmode none
attr recordingmode vector
attr source "packetLength(demuxFlow(merge(packetPushedIn, packetPulledIn)))"
attr title "flow specific incoming packet lengths"
attr unit b
vector 217 TwoMasterClocksRingGptpShowcase.tsnClock2.ethernet.fcsChecker flowIncomingDataRate:vector ETV
attr interpolationmode linear
attr recordingmode vector
attr source "throughput(demuxFlow(merge(packetPushedIn, packetPulledIn)))"
attr title "flow specific incoming data rate"
attr unit bps
vector 218 TwoMasterClocksRingGptpShowcase.tsnClock2.ethernet.fcsChecker flowOutgoingPacketLengths:vector ETV
attr interpolationmode none
attr recordingmode vector
attr source "packetLength(demuxFlow(merge(packetPushedOut, packetPulledOut)))"
attr title "flow specific outgoing packet lengths"
attr unit b
vector 219 TwoMasterClocksRingGptpShowcase.tsnClock2.ethernet.fcsChecker flowOutgoingDataRate:vector ETV
attr interpolationmode linear
attr recordingmode vector
attr source "throughput(demuxFlow(merge(packetPushedOut, packetPulledOut)))"
attr title "flow specific outgoing data rate"
attr unit bps
vector 220 TwoMasterClocksRingGptpShowcase.tsnClock2.ethernet.fcsChecker flowDroppedPacketLengths:vector ETV
attr interpolationmode none
attr recordingmode vector
attr source packetLength(demuxFlow(packetDropped))
attr title "flow specific dropped packet lengths"
attr unit b
vector 221 TwoMasterClocksRingGptpShowcase.tsnClock2.ethernet.fcsChecker flowDroppedDataRate:vector ETV
attr interpolationmode linear
attr recordingmode vector
attr source throughput(demuxFlow(packetDropped))
attr title "flow specific dropped data rate"
attr unit bps
vector 222 TwoMasterClocksRingGptpShowcase.tsnClock2.lo[0].lo rcvdPkFromHl:vector(packetBytes) ETV
attr interpolationmode none
attr recordingmode vector(packetBytes)
attr source packetReceivedFromUpper
attr title "packets received from higher layer, packetBytes"
vector 223 TwoMasterClocksRingGptpShowcase.tsnClock2.lo[0].lo passedUpPk:vector(packetBytes) ETV
attr interpolationmode none
attr recordingmode vector(packetBytes)
attr source packetSentToUpper
attr title "packets passed to higher layer, packetBytes"
vector 224 TwoMasterClocksRingGptpShowcase.tsnClock2.lo[0] packetDropInterfaceDown:vector(packetBytes) ETV
attr interpolationmode none
attr recordingmode vector(packetBytes)
attr source packetDropReasonIsInterfaceDown(packetDropped)
attr title "packet drops: interface down, packetBytes"
vector 225 TwoMasterClocksRingGptpShowcase.tsnClock2.lo[0] packetDropNoCarrier:vector(packetBytes) ETV
attr interpolationmode none
attr recordingmode vector(packetBytes)
attr source packetDropReasonIsNoCarrier(packetDropped)
attr title "packet drops: no carrier, packetBytes"
vector 226 TwoMasterClocksRingGptpShowcase.tsnClock2.eth[0].macLayer.queue queueLength:vector ETV
attr autoWarmupFilter false
attr interpolationmode sample-hold
attr recordingmode vector
attr source "warmup(atomic(constant0(packetPushEnded) + count(packetPushStarted) - count(packetPulled) - count(packetRemoved) - count(packetDropped)))"
attr title "queue length"
attr unit pk
vector 227 TwoMasterClocksRingGptpShowcase.tsnClock2.eth[0].macLayer.queue queueBitLength:vector ETV
attr autoWarmupFilter false
attr interpolationmode sample-hold
attr recordingmode vector
attr source "warmup(atomic(constant0(packetPushEnded) + sum(packetLength(packetPushStarted)) - sum(packetLength(packetPulled)) - sum(packetLength(packetRemoved)) - sum(packetLength(packetDropped))))"
attr title "queue bit length"
attr unit b
vector 228 TwoMasterClocksRingGptpShowcase.tsnClock2.eth[0].macLayer.queue queueingTime:vector ETV
attr interpolationmode none
attr recordingmode vector
attr source queueingTime(packetPulled)
attr title "queueing times"
attr unit s
vector 229 TwoMasterClocksRingGptpShowcase.tsnClock2.eth[0].macLayer.queue incomingPacketLengths:vector ETV
attr interpolationmode none
attr recordingmode vector
attr source packetLength(packetPushStarted)
attr title "incoming packet lengths"
attr unit b
vector 230 TwoMasterClocksRingGptpShowcase.tsnClock2.eth[0].macLayer.queue incomingDataRate:vector ETV
attr interpolationmode linear
attr recordingmode vector
attr source throughput(packetPushStarted)
attr title "incoming datarate"
attr unit bps
vector 231 TwoMasterClocksRingGptpShowcase.tsnClock2.eth[0].macLayer.queue outgoingPacketLengths:vector ETV
attr interpolationmode none
attr recordingmode vector
attr source packetLength(packetPulled)
attr title "outgoing packet lengths"
attr unit b
vector 232 TwoMasterClocksRingGptpShowcase.tsnClock2.eth[0].macLayer.queue outgoingDataRate:vector ETV
attr interpolationmode linear
attr recordingmode vector
attr source throughput(packetPulled)
attr title "outgoing datarate"
attr unit bps
vector 233 TwoMasterClocksRingGptpShowcase.tsnClock2.eth[0].macLayer.queue droppedPacketLengthsQueueOverflow:vector ETV
attr interpolationmode none
attr recordingmode vector
attr source packetLength(packetDropReasonIsQueueOverflow(packetDropped))
attr title "dropped packet lengths: queue overflow"
attr unit b
vector 234 TwoMasterClocksRingGptpShowcase.tsnClock2.eth[0].macLayer.queue flowQueueingTime:vector ETV
attr interpolationmode none
attr recordingmode vector
attr source queueingTime(demuxFlow(packetPulled))
attr title "flow queueing times"
attr unit s
vector 235 TwoMasterClocksRingGptpShowcase.tsnClock2.eth[0].macLayer.queue flowIncomingDataRate:vector ETV
attr interpolationmode linear
attr recordingmode vector
attr source throughput(flowPacketLength(demuxFlow(packetPushStarted)))
attr title "flow specific incoming data rate"
attr unit bps
vector 236 TwoMasterClocksRingGptpShowcase.tsnClock2.eth[0].macLayer.queue flowOutgoingDataRate:vector ETV
attr interpolationmode linear
attr recordingmode vector
attr source throughput(flowPacketLength(demuxFlow(packetPulled)))
attr title "flow specific outgoing data rate"
attr unit bps
vector 237 TwoMasterClocksRingGptpShowcase.tsnClock2.eth[0].macLayer.server incomingPacketLengths:vector ETV
attr interpolationmode none
attr recordingmode vector
attr source packetLength(packetPulled)
attr title "incoming packet lengths"
attr unit b
vector 238 TwoMasterClocksRingGptpShowcase.tsnClock2.eth[0].macLayer.server incomingDataRate:vector ETV
attr interpolationmode linear
attr recordingmode vector
attr source throughput(packetPulled)
attr title "incoming datarate"
attr unit bps
vector 239 TwoMasterClocksRingGptpShowcase.tsnClock2.eth[0].macLayer.server outgoingPacketLengths:vector ETV
attr interpolationmode none
attr recordingmode vector
attr source packetLength(packetPushed)
attr title "outgoing packet lengths"
attr unit b
vector 240 TwoMasterClocksRingGptpShowcase.tsnClock2.eth[0].macLayer.server outgoingDataRate:vector ETV
attr interpolationmode linear
attr recordingmode vector
attr source throughput(packetPushed)
attr title "outgoing datarate"
attr unit bps
vector 241 TwoMasterClocksRingGptpShowcase.tsnClock2.eth[0].macLayer.outboundEmitter incomingPacketLengths:vector ETV
attr interpolationmode none
attr recordingmode vector
attr source "packetLength(merge(packetPushedIn, packetPulledIn))"
attr title "incoming packet lengths"
attr unit b
vector 242 TwoMasterClocksRingGptpShowcase.tsnClock2.eth[0].macLayer.outboundEmitter incomingDataRate:vector ETV
attr interpolationmode linear
attr recordingmode vector
attr source "throughput(merge(packetPushedIn, packetPulledIn))"
attr title "incoming data rate"
attr unit bps
vector 243 TwoMasterClocksRingGptpShowcase.tsnClock2.eth[0].macLayer.outboundEmitter outgoingPacketLengths:vector ETV
attr interpolationmode none
attr recordingmode vector
attr source "packetLength(merge(packetPushedOut, packetPulledOut))"
attr title "outgoing packet lengths"
attr unit b
vector 244 TwoMasterClocksRingGptpShowcase.tsnClock2.eth[0].macLayer.outboundEmitter outgoingDataRate:vector ETV
attr interpolationmode linear
attr recordingmode vector
attr source "throughput(merge(packetPushedOut, packetPulledOut))"
attr title "outgoing data rate"
attr unit bps
vector 245 TwoMasterClocksRingGptpShowcase.tsnClock2.eth[0].macLayer.outboundEmitter flowIncomingPacketLengths:vector ETV
attr interpolationmode none
attr recordingmode vector
attr source "packetLength(demuxFlow(merge(packetPushedIn, packetPulledIn)))"
attr title "flow specific incoming packet lengths"
attr unit b
vector 246 TwoMasterClocksRingGptpShowcase.tsnClock2.eth[0].macLayer.outboundEmitter flowIncomingDataRate:vector ETV
attr interpolationmode linear
attr recordingmode vector
attr source "throughput(demuxFlow(merge(packetPushedIn, packetPulledIn)))"
attr title "flow specific incoming data rate"
attr unit bps
vector 247 TwoMasterClocksRingGptpShowcase.tsnClock2.eth[0].macLayer.outboundEmitter flowOutgoingPacketLengths:vector ETV
attr interpolationmode none
attr recordingmode vector
attr source "packetLength(demuxFlow(merge(packetPushedOut, packetPulledOut)))"
attr title "flow specific outgoing packet lengths"
attr unit b
vector 248 TwoMasterClocksRingGptpShowcase.tsnClock2.eth[0].macLayer.outboundEmitter flowOutgoingDataRate:vector ETV
attr interpolationmode linear
attr recordingmode vector
attr source "throughput(demuxFlow(merge(packetPushedOut, packetPulledOut)))"
attr title "flow specific outgoing data rate"
attr unit bps
vector 249 TwoMasterClocksRingGptpShowcase.tsnClock2.eth[0].macLayer.fcsChecker incomingPacketLengths:vector ETV
attr interpolationmode none
attr recordingmode vector
[...]
3453	4225	2.00014762759	576
3453	4259	2.00015498759	576
3453	4596	3.000101508556	576
3453	4689	3.000108868556	576
3453	4802	3.000116228556	576
3453	4914	3.000123588556	576
3453	5018	3.000130948556	576
3453	5114	3.000138308556	576
3453	5196	3.000145668556	576
3453	5230	3.000153028556	576
3454	2495	0.3	37920
3454	2495	0.4	0
3454	2495	0.5	0
3454	2495	0.6	0
3454	2495	0.7	0
3454	2495	0.8	0
3454	2495	0.9	0
3454	2495	1	0
3454	3631	1.1	46080
3454	3631	1.2	0
3454	3631	1.3	0
3454	3631	1.4	0
3454	3631	1.5	0
3454	3631	1.6	0
3454	3631	1.7	0
3454	3631	1.8	0
3454	3631	1.9	0
3454	3631	2	0
3454	4596	2.1	46080
3454	4596	2.2	0
3454	4596	2.3	0
3454	4596	2.4	0
3454	4596	2.5	0
3454	4596	2.6	0
3454	4596	2.7	0
3454	4596	2.8	0
3454	4596	2.9	0
3454	4596	3	0
3455	2342	0.281344916642	512
3455	2347	0.281354036642	752
3455	2495	1.000025175942	576
3455	2532	1.000032535942	576
3455	2622	1.000046880611	576
3455	2673	1.000054240611	576
3455	2717	1.000061600611	576
3455	2741	1.000068960611	576
3455	2976	1.000126178982	576
3455	3037	1.000133538982	576
3455	3631	2.00010346759	576
3455	3742	2.00011082759	576
3455	3868	2.00011818759	576
3455	3973	2.00012554759	576
3455	4080	2.00013290759	576
3455	4169	2.00014026759	576
3455	4225	2.00014762759	576
3455	4259	2.00015498759	576
3455	4596	3.000101508556	576
3455	4689	3.000108868556	576
3455	4802	3.000116228556	576
3455	4914	3.000123588556	576
3455	5018	3.000130948556	576
3455	5114	3.000138308556	576
3455	5196	3.000145668556	576
3455	5230	3.000153028556	576
3456	2495	0.3	37920
3456	2495	0.4	0
3456	2495	0.5	0
3456	2495	0.6	0
3456	2495	0.7	0
3456	2495	0.8	0
3456	2495	0.9	0
3456	2495	1	0
3456	3631	1.1	46080
3456	3631	1.2	0
3456	3631	1.3	0
3456	3631	1.4	0
3456	3631	1.5	0
3456	3631	1.6	0
3456	3631	1.7	0
3456	3631	1.8	0
3456	3631	1.9	0
3456	3631	2	0
3456	4596	2.1	46080
3456	4596	2.2	0
3456	4596	2.3	0
3456	4596	2.4	0
3456	4596	2.5	0
3456	4596	2.6	0
3456	4596	2.7	0
3456	4596	2.8	0
3456	4596	2.9	0
3456	4596	3	0
3458	5407	0.1	0
3458	5407	0.2	0
3458	5407	0.3	0
3458	5407	0.4	0
3458	5407	0.5	0
3458	5407	0.6	0
3458	5407	0.7	0
3458	5407	0.8	0
3458	5407	0.9	0
3458	5407	1	0
3458	5407	1.1	0
3458	5407	1.2	0
3458	5407	1.3	0
3458	5407	1.4	0
3458	5407	1.5	0
3458	5407	1.6	0
3458	5407	1.7	0
3458	5407	1.8	0
3458	5407	1.9	0
3458	5407	2	0
3458	5407	2.1	0
3458	5407	2.2	0
3458	5407	2.3	0
3458	5407	2.4	0
3458	5407	2.5	0
3458	5407	2.6	0
3458	5407	2.7	0
3458	5407	2.8	0
3458	5407	2.9	0
3458	5407	3	0
3458	5407	3.1	0
3458	5407	3.2	0
3458	5407	3.3	0
3458	5407	3.4	0
3458	5407	3.5	0
3458	5407	3.6	0
3458	5407	3.7	0
3458	5407	3.8	0
3458	5407	3.9	0
3458	5407	4	0
3465	2342	0.281344916642	512
3465	2347	0.281354036642	752
3465	2495	1.000025175942	576
3465	2532	1.000032535942	576
3465	2622	1.000046880611	576
3465	2673	1.000054240611	576
3465	2717	1.000061600611	576
3465	2741	1.000068960611	576
3465	2976	1.000126178982	576
3465	3037	1.000133538982	576
3465	3631	2.00010346759	576
3465	3742	2.00011082759	576
3465	3868	2.00011818759	576
3465	3973	2.00012554759	576
3465	4080	2.00013290759	576
3465	4169	2.00014026759	576
3465	4225	2.00014762759	576
3465	4259	2.00015498759	576
3465	4596	3.000101508556	576
3465	4689	3.000108868556	576
3465	4802	3.000116228556	576
3465	4914	3.000123588556	576
3465	5018	3.000130948556	576
3465	5114	3.000138308556	576
3465	5196	3.000145668556	576
3465	5230	3.000153028556	576
3466	2495	0.3	37920
3466	2495	0.4	0
3466	2495	0.5	0
3466	2495	0.6	0
3466	2495	0.7	0
3466	2495	0.8	0
3466	2495	0.9	0
3466	2495	1	0
3466	3631	1.1	46080
3466	3631	1.2	0
3466	3631	1.3	0
3466	3631	1.4	0
3466	3631	1.5	0
3466	3631	1.6	0
3466	3631	1.7	0
3466	3631	1.8	0
3466	3631	1.9	0
3466	3631	2	0
3466	4596	2.1	46080
3466	4596	2.2	0
3466	4596	2.3	0
3466	4596	2.4	0
3466	4596	2.5	0
3466	4596	2.6	0
3466	4596	2.7	0
3466	4596	2.8	0
3466	4596	2.9	0
3466	4596	3	0
3467	2342	0.281344916642	512
3467	2347	0.281354036642	752
3467	2495	1.000025175942	576
3467	2532	1.000032535942	576
3467	2622	1.000046880611	576
3467	2673	1.000054240611	576
3467	2717	1.000061600611	576
3467	2741	1.000068960611	576
3467	2976	1.000126178982	576
3467	3037	1.000133538982	576
3467	3631	2.00010346759	576
3467	3742	2.00011082759	576
3467	3868	2.00011818759	576
3467	3973	2.00012554759	576
3467	4080	2.00013290759	576
3467	4169	2.00014026759	576
3467	4225	2.00014762759	576
3467	4259	2.00015498759	576
3467	4596	3.000101508556	576
3467	4689	3.000108868556	576
3467	4802	3.000116228556	576
3467	4914	3.000123588556	576
3467	5018	3.000130948556	576
3467	5114	3.000138308556	576
3467	5196	3.000145668556	576
3467	5230	3.000153028556	576
3468	2495	0.3	37920
3468	2495	0.4	0
3468	2495	0.5	0
3468	2495	0.6	0
3468	2495	0.7	0
3468	2495	0.8	0
3468	2495	0.9	0
3468	2495	1	0
3468	3631	1.1	46080
3468	3631	1.2	0
3468	3631	1.3	0
3468	3631	1.4	0
3468	3631	1.5	0
3468	3631	1.6	0
3468	3631	1.7	0
3468	3631	1.8	0
3468	3631	1.9	0
3468	3631	2	0
3468	4596	2.1	46080
3468	4596	2.2	0
3468	4596	2.3	0
3468	4596	2.4	0
3468	4596	2.5	0
3468	4596	2.6	0
3468	4596	2.7	0
3468	4596	2.8	0
3468	4596	2.9	0
3468	4596	3	0
3473	2459	1.000004275923	576
3473	2499	1.000025980627	576
3473	2538	1.000033340627	576
3473	2888	1.000105278947	576
3473	3446	2.000082567606	576
3473	3489	2.000089927606	576
3473	3555	2.000097287606	576
3473	3723	2.000109158266	576
3473	4429	3.000080608572	576
3473	4472	3.000087968572	576
3473	4532	3.000095328572	576
3473	4765	3.000113637206	576
3474	2459	0.1	23040
3474	2459	0.2	0
3474	2459	0.3	0
3474	2459	0.4	0
3474	2459	0.5	0
3474	2459	0.6	0
3474	2459	0.7	0
3474	2459	0.8	0
3474	2459	0.9	0
3474	2459	1	0
3474	3446	1.1	23040
3474	3446	1.2	0
3474	3446	1.3	0
3474	3446	1.4	0
3474	3446	1.5	0
3474	3446	1.6	0
3474	3446	1.7	0
3474	3446	1.8	0
3474	3446	1.9	0
3474	3446	2	0
3474	4429	2.1	23040
3474	4429	2.2	0
3474	4429	2.3	0
3474	4429	2.4	0
3474	4429	2.5	0
3474	4429	2.6	0
3474	4429	2.7	0
3474	4429	2.8	0
3474	4429	2.9	0
3474	4429	3	0
3475	2459	1.000004275923	640
3475	2499	1.000025980627	640
3475	2538	1.000033340627	640
3475	2888	1.000105278947	640
3475	3446	2.000082567606	640
3475	3489	2.000089927606	640
3475	3555	2.000097287606	640
3475	3723	2.000109158266	640
3475	4429	3.000080608572	640
3475	4472	3.000087968572	640
3475	4532	3.000095328572	640
3475	4765	3.000113637206	640
3476	2459	0.1	25600
3476	2459	0.2	0
3476	2459	0.3	0
3476	2459	0.4	0
3476	2459	0.5	0
3476	2459	0.6	0
3476	2459	0.7	0
3476	2459	0.8	0
3476	2459	0.9	0
3476	2459	1	0
3476	3446	1.1	25600
3476	3446	1.2	0
3476	3446	1.3	0
3476	3446	1.4	0
3476	3446	1.5	0
3476	3446	1.6	0
3476	3446	1.7	0
3476	3446	1.8	0
3476	3446	1.9	0
3476	3446	2	0
3476	4429	2.1	25600
3476	4429	2.2	0
3476	4429	2.3	0
3476	4429	2.4	0
3476	4429	2.5	0
3476	4429	2.6	0
3476	4429	2.7	0
3476	4429	2.8	0
3476	4429	2.9	0
3476	4429	3	0
3481	2465	1.000010675923	1
3481	2468	1.000011635923	0
3481	2528	1.000032380627	1
3481	2537	1.000033340627	0
3481	2575	1.000039740627	1
3481	2586	1.000040700627	0
3481	2907	1.000111678947	1
3481	2918	1.000112638947	0
3481	3477	2.000088967606	1
3481	3488	2.000089927606	0
3481	3535	2.000096327606	1
3481	3554	2.000097287606	0
3481	3636	2.000103687606	1
3481	3654	2.000104647606	0
3481	3812	2.000115558266	1
3481	3838	2.000116518266	0
3481	4460	3.000087008572	1
3481	4471	3.000087968572	0
3481	4509	3.000094368572	1
3481	4531	3.000095328572	0
3481	4602	3.000101728572	1
3481	4627	3.000102688572	0
3481	4867	3.000120037206	1
3481	4878	3.000120997206	0
3482	2459	1.000004275923	640
3482	2499	1.000025980627	640
3482	2538	1.000033340627	640
3482	2888	1.000105278947	640
3482	3446	2.000082567606	640
3482	3489	2.000089927606	640
3482	3555	2.000097287606	640
3482	3723	2.000109158266	640
3482	4429	3.000080608572	640
3482	4472	3.000087968572	640
3482	4532	3.000095328572	640
3482	4765	3.000113637206	640
3483	2459	0.1	25600
3483	2459	0.2	0
3483	2459	0.3	0
3483	2459	0.4	0
3483	2459	0.5	0
3483	2459	0.6	0
3483	2459	0.7	0
3483	2459	0.8	0
3483	2459	0.9	0
3483	2459	1	0
3483	3446	1.1	25600
3483	3446	1.2	0
3483	3446	1.3	0
3483	3446	1.4	0
3483	3446	1.5	0
3483	3446	1.6	0
3483	3446	1.7	0
3483	3446	1.8	0
3483	3446	1.9	0
3483	3446	2	0
3483	4429	2.1	25600
3483	4429	2.2	0
3483	4429	2.3	0
3483	4429	2.4	0
3483	4429	2.5	0
3483	4429	2.6	0
3483	4429	2.7	0
3483	4429	2.8	0
3483	4429	2.9	0
3483	4429	3	0
3484	2459	1.000004275923	640
3484	2499	1.000025980627	640
3484	2538	1.000033340627	640
3484	2888	1.000105278947	640
3484	3446	2.000082567606	640
3484	3489	2.000089927606	640
3484	3555	2.000097287606	640
3484	3723	2.000109158266	640
3484	4429	3.000080608572	640
3484	4472	3.000087968572	640
3484	4532	3.000095328572	640
3484	4765	3.000113637206	640
3485	2459	0.1	25600
3485	2459	0.2	0
3485	2459	0.3	0
3485	2459	0.4	0
3485	2459	0.5	0
3485	2459	0.6	0
3485	2459	0.7	0
3485	2459	0.8	0
3485	2459	0.9	0
3485	2459	1	0
3485	3446	1.1	25600
3485	3446	1.2	0
3485	3446	1.3	0
3485	3446	1.4	0
3485	3446	1.5	0
3485	3446	1.6	0
3485	3446	1.7	0
3485	3446	1.8	0
3485	3446	1.9	0
3485	3446	2	0
3485	4429	2.1	25600
3485	4429	2.2	0
3485	4429	2.3	0
3485	4429	2.4	0
3485	4429	2.5	0
3485	4429	2.6	0
3485	4429	2.7	0
3485	4429	2.8	0
3485	4429	2.9	0
3485	4429	3	0
3490	2459	1.000004275923	1
3490	2465	1.000010675923	0
3490	2499	1.000025980627	1
3490	2528	1.000032380627	0
3490	2538	1.000033340627	1
3490	2575	1.000039740627	0
3490	2888	1.000105278947	1
3490	2907	1.000111678947	0
3490	3446	2.000082567606	1
3490	3477	2.000088967606	0
3490	3489	2.000089927606	1
3490	3535	2.000096327606	0
3490	3555	2.000097287606	1
3490	3636	2.000103687606	0
3490	3723	2.000109158266	1
3490	3812	2.000115558266	0
3490	4429	3.000080608572	1
3490	4460	3.000087008572	0
3490	4472	3.000087968572	1
3490	4509	3.000094368572	0
3490	4532	3.000095328572	1
3490	4602	3.000101728572	0
3490	4765	3.000113637206	1
3490	4867	3.000120037206	0
3491	2465	0.1	25600
3491	2465	0.2	0
3491	2465	0.3	0
3491	2465	0.4	0
3491	2465	0.5	0
3491	2465	0.6	0
3491	2465	0.7	0
3491	2465	0.8	0
3491	2465	0.9	0
3491	2465	1	0
3491	3477	1.1	25600
3491	3477	1.2	0
3491	3477	1.3	0
3491	3477	1.4	0
3491	3477	1.5	0
3491	3477	1.6	0
3491	3477	1.7	0
3491	3477	1.8	0
3491	3477	1.9	0
3491	3477	2	0
3491	4460	2.1	25600
3491	4460	2.2	0
3491	4460	2.3	0
3491	4460	2.4	0
3491	4460	2.5	0
3491	4460	2.6	0
3491	4460	2.7	0
3491	4460	2.8	0
3491	4460	2.9	0
3491	4460	3	0
3491	5407	3.1	25600
3491	5407	3.2	0
3491	5407	3.3	0
3491	5407	3.4	0
3491	5407	3.5	0
3491	5407	3.6	0
3491	5407	3.7	0
3491	5407	3.8	0
3491	5407	3.9	0
3491	5407	4	0
3492	2459	0.1	0.0256
3492	2459	0.2	0
3492	2459	0.3	0
3492	2459	0.4	0
3492	2459	0.5	0
3492	2459	0.6	0
3492	2459	0.7	0
3492	2459	0.8	0
3492	2459	0.9	0
3492	2459	1	0
3492	3446	1.1	0.0256
3492	3446	1.2	0
3492	3446	1.3	0
3492	3446	1.4	0
3492	3446	1.5	0
3492	3446	1.6	0
3492	3446	1.7	0
3492	3446	1.8	0
3492	3446	1.9	0
3492	3446	2	0
3492	4429	2.1	0.0256
3492	4429	2.2	0
3492	4429	2.3	0
3492	4429	2.4	0
3492	4429	2.5	0
3492	4429	2.6	0
3492	4429	2.7	0
3492	4429	2.8	0
3492	4429	2.9	0
3492	4429	3	0
3493	2465	1.000010675923	6.4e-06
3493	2528	1.000032380627	6.4e-06
3493	2575	1.000039740627	6.4e-06
3493	2907	1.000111678947	6.4e-06
3493	3477	2.000088967606	6.4e-06
3493	3535	2.000096327606	6.4e-06
3493	3636	2.000103687606	6.4e-06
3493	3812	2.000115558266	6.4e-06
3493	4460	3.000087008572	6.4e-06
3493	4509	3.000094368572	6.4e-06
3493	4602	3.000101728572	6.4e-06
3493	4867	3.000120037206	6.4e-06
3495	2342	0.281344916642	576
3495	2347	0.281354036642	816
3495	2495	1.000025175942	640
3495	2532	1.000032535942	640
3495	2622	1.000046880611	640
3495	2673	1.000054240611	640
3495	2717	1.000061600611	640
3495	2741	1.000068960611	640
3495	2976	1.000126178982	640
3495	3037	1.000133538982	640
3495	3631	2.00010346759	640
3495	3742	2.00011082759	640
3495	3868	2.00011818759	640
3495	3973	2.00012554759	640
3495	4080	2.00013290759	640
3495	4169	2.00014026759	640
3495	4225	2.00014762759	640
3495	4259	2.00015498759	640
3495	4596	3.000101508556	640
3495	4689	3.000108868556	640
3495	4802	3.000116228556	640
3495	4914	3.000123588556	640
3495	5018	3.000130948556	640
3495	5114	3.000138308556	640
3495	5196	3.000145668556	640
3495	5230	3.000153028556	640
3496	2495	0.3	41760
3496	2495	0.4	0
3496	2495	0.5	0
3496	2495	0.6	0
3496	2495	0.7	0
3496	2495	0.8	0
3496	2495	0.9	0
3496	2495	1	0
3496	3631	1.1	51200
3496	3631	1.2	0
3496	3631	1.3	0
3496	3631	1.4	0
3496	3631	1.5	0
3496	3631	1.6	0
3496	3631	1.7	0
3496	3631	1.8	0
3496	3631	1.9	0
3496	3631	2	0
3496	4596	2.1	51200
3496	4596	2.2	0
3496	4596	2.3	0
3496	4596	2.4	0
3496	4596	2.5	0
3496	4596	2.6	0
3496	4596	2.7	0
3496	4596	2.8	0
3496	4596	2.9	0
3496	4596	3	0
3497	2342	0.281344916642	512
3497	2347	0.281354036642	752
3497	2495	1.000025175942	576
3497	2532	1.000032535942	576
3497	2622	1.000046880611	576
3497	2673	1.000054240611	576
3497	2717	1.000061600611	576
3497	2741	1.000068960611	576
3497	2976	1.000126178982	576
3497	3037	1.000133538982	576
3497	3631	2.00010346759	576
3497	3742	2.00011082759	576
3497	3868	2.00011818759	576
3497	3973	2.00012554759	576
3497	4080	2.00013290759	576
3497	4169	2.00014026759	576
3497	4225	2.00014762759	576
3497	4259	2.00015498759	576
3497	4596	3.000101508556	576
3497	4689	3.000108868556	576
3497	4802	3.000116228556	576
3497	4914	3.000123588556	576
3497	5018	3.000130948556	576
3497	5114	3.000138308556	576
3497	5196	3.000145668556	576
3497	5230	3.000153028556	576
3498	2495	0.3	37920
3498	2495	0.4	0
3498	2495	0.5	0
3498	2495	0.6	0
3498	2495	0.7	0
3498	2495	0.8	0
3498	2495	0.9	0
3498	2495	1	0
3498	3631	1.1	46080
3498	3631	1.2	0
3498	3631	1.3	0
3498	3631	1.4	0
3498	3631	1.5	0
3498	3631	1.6	0
3498	3631	1.7	0
3498	3631	1.8	0
3498	3631	1.9	0
3498	3631	2	0
3498	4596	2.1	46080
3498	4596	2.2	0
3498	4596	2.3	0
3498	4596	2.4	0
3498	4596	2.5	0
3498	4596	2.6	0
3498	4596	2.7	0
3498	4596	2.8	0
3498	4596	2.9	0
3498	4596	3	0
3500	5407	0.1	0
3500	5407	0.2	0
3500	5407	0.3	0
3500	5407	0.4	0
3500	5407	0.5	0
3500	5407	0.6	0
3500	5407	0.7	0
3500	5407	0.8	0
3500	5407	0.9	0
3500	5407	1	0
3500	5407	1.1	0
3500	5407	1.2	0
3500	5407	1.3	0
3500	5407	1.4	0
3500	5407	1.5	0
3500	5407	1.6	0
3500	5407	1.7	0
3500	5407	1.8	0
3500	5407	1.9	0
3500	5407	2	0
3500	5407	2.1	0
3500	5407	2.2	0
3500	5407	2.3	0
3500	5407	2.4	0
3500	5407	2.5	0
3500	5407	2.6	0
3500	5407	2.7	0
3500	5407	2.8	0
3500	5407	2.9	0
3500	5407	3	0
3500	5407	3.1	0
3500	5407	3.2	0
3500	5407	3.3	0
3500	5407	3.4	0
3500	5407	3.5	0
3500	5407	3.6	0
3500	5407	3.7	0
3500	5407	3.8	0
3500	5407	3.9	0
3500	5407	4	0
3507	2342	0.281344916642	576
3507	2347	0.281354036642	816
3507	2495	1.000025175942	640
3507	2532	1.000032535942	640
3507	2622	1.000046880611	640
3507	2673	1.000054240611	640
3507	2717	1.000061600611	640
3507	2741	1.000068960611	640
3507	2976	1.000126178982	640
3507	3037	1.000133538982	640
3507	3631	2.00010346759	640
3507	3742	2.00011082759	640
3507	3868	2.00011818759	640
3507	3973	2.00012554759	640
3507	4080	2.00013290759	640
3507	4169	2.00014026759	640
3507	4225	2.00014762759	640
3507	4259	2.00015498759	640
3507	4596	3.000101508556	640
3507	4689	3.000108868556	640
3507	4802	3.000116228556	640
3507	4914	3.000123588556	640
3507	5018	3.000130948556	640
3507	5114	3.000138308556	640
3507	5196	3.000145668556	640
3507	5230	3.000153028556	640
3508	2495	0.3	41760
3508	2495	0.4	0
3508	2495	0.5	0
3508	2495	0.6	0
3508	2495	0.7	0
3508	2495	0.8	0
3508	2495	0.9	0
3508	2495	1	0
3508	3631	1.1	51200
3508	3631	1.2	0
3508	3631	1.3	0
3508	3631	1.4	0
3508	3631	1.5	0
3508	3631	1.6	0
3508	3631	1.7	0
3508	3631	1.8	0
3508	3631	1.9	0
3508	3631	2	0
3508	4596	2.1	51200
3508	4596	2.2	0
3508	4596	2.3	0
3508	4596	2.4	0
3508	4596	2.5	0
3508	4596	2.6	0
3508	4596	2.7	0
3508	4596	2.8	0
3508	4596	2.9	0
3508	4596	3	0
3509	2342	0.281344916642	576
3509	2347	0.281354036642	816
3509	2495	1.000025175942	640
3509	2532	1.000032535942	640
3509	2622	1.000046880611	640
3509	2673	1.000054240611	640
3509	2717	1.000061600611	640
3509	2741	1.000068960611	640
3509	2976	1.000126178982	640
3509	3037	1.000133538982	640
3509	3631	2.00010346759	640
3509	3742	2.00011082759	640
3509	3868	2.00011818759	640
3509	3973	2.00012554759	640
3509	4080	2.00013290759	640
3509	4169	2.00014026759	640
3509	4225	2.00014762759	640
3509	4259	2.00015498759	640
3509	4596	3.000101508556	640
3509	4689	3.000108868556	640
3509	4802	3.000116228556	640
3509	4914	3.000123588556	640
3509	5018	3.000130948556	640
3509	5114	3.000138308556	640
3509	5196	3.000145668556	640
3509	5230	3.000153028556	640
3510	2495	0.3	41760
3510	2495	0.4	0
3510	2495	0.5	0
3510	2495	0.6	0
3510	2495	0.7	0
3510	2495	0.8	0
3510	2495	0.9	0
3510	2495	1	0
3510	3631	1.1	51200
3510	3631	1.2	0
3510	3631	1.3	0
3510	3631	1.4	0
3510	3631	1.5	0
3510	3631	1.6	0
3510	3631	1.7	0
3510	3631	1.8	0
3510	3631	1.9	0
3510	3631	2	0
3510	4596	2.1	51200
3510	4596	2.2	0
3510	4596	2.3	0
3510	4596	2.4	0
3510	4596	2.5	0
3510	4596	2.6	0
3510	4596	2.7	0
3510	4596	2.8	0
3510	4596	2.9	0
3510	4596	3	0
3515	2495	0.3	41760
3515	2495	0.4	0
3515	2495	0.5	0
3515	2495	0.6	0
3515	2495	0.7	0
3515	2495	0.8	0
3515	2495	0.9	0
3515	2495	1	0
3515	3631	1.1	51200
3515	3631	1.2	0
3515	3631	1.3	0
3515	3631	1.4	0
3515	3631	1.5	0
3515	3631	1.6	0
3515	3631	1.7	0
3515	3631	1.8	0
3515	3631	1.9	0
3515	3631	2	0
3515	4596	2.1	51200
3515	4596	2.2	0
3515	4596	2.3	0
3515	4596	2.4	0
3515	4596	2.5	0
3515	4596	2.6	0
3515	4596	2.7	0
3515	4596	2.8	0
3515	4596	2.9	0
3515	4596	3	0
3515	5407	3.1	51200
3515	5407	3.2	0
3515	5407	3.3	0
3515	5407	3.4	0
3515	5407	3.5	0
3515	5407	3.6	0
3515	5407	3.7	0
3515	5407	3.8	0
3515	5407	3.9	0
3515	5407	4	0
3516	2342	0.281344916642	5.76e-06
3516	2347	0.281354036642	8.16e-06
3516	2495	1.000025175942	6.4e-06
3516	2532	1.000032535942	6.4e-06
3516	2622	1.000046880611	6.4e-06
3516	2673	1.000054240611	6.4e-06
3516	2717	1.000061600611	6.4e-06
3516	2741	1.000068960611	6.4e-06
3516	2976	1.000126178982	6.4e-06
3516	3037	1.000133538982	6.4e-06
3516	3631	2.00010346759	6.4e-06
3516	3742	2.00011082759	6.4e-06
3516	3868	2.00011818759	6.4e-06
3516	3973	2.00012554759	6.4e-06
3516	4080	2.00013290759	6.4e-06
3516	4169	2.00014026759	6.4e-06
3516	4225	2.00014762759	6.4e-06
3516	4259	2.00015498759	6.4e-06
3516	4596	3.000101508556	6.4e-06
3516	4689	3.000108868556	6.4e-06
3516	4802	3.000116228556	6.4e-06
3516	4914	3.000123588556	6.4e-06
3516	5018	3.000130948556	6.4e-06
3516	5114	3.000138308556	6.4e-06
3516	5196	3.000145668556	6.4e-06
3516	5230	3.000153028556	6.4e-06
3531	2348	0.281354036642	0.281354510887
3532	2348	0.281354036642	4.24308e-07
3532	2348	0.281354036642	4.74245e-07
3533	2348	0.281354036642	1.0000004047762
3534	2742	1.000068960611	5.0005e-08
3534	4226	2.00014762759	5.0005e-08
3534	5019	3.000130948556	5.0005e-08
3539	2674	1.000054240611	4.9479e-08
3539	3743	2.00011082759	4.9478e-08
3539	4690	3.000108868556	4.9478e-08
3544	2533	1.000032535942	4.9288e-08
3544	4081	2.00013290759	4.8927e-08
3544	5115	3.000138308556	4.8927e-08
3549	3038	1.000133538982	5.0006e-08
3549	4260	2.00015498759	5.001e-08
3549	5231	3.000153028556	5.001e-08
3553	2342	0.281344916642	368
3553	2347	0.281354036642	608
3553	2495	1.000025175942	432
3553	2532	1.000032535942	432
3553	2622	1.000046880611	432
3553	2673	1.000054240611	432
3553	2717	1.000061600611	432
3553	2741	1.000068960611	432
3553	2976	1.000126178982	432
3553	3037	1.000133538982	432
3553	3631	2.00010346759	432
3553	3742	2.00011082759	432
3553	3868	2.00011818759	432
3553	3973	2.00012554759	432
3553	4080	2.00013290759	432
3553	4169	2.00014026759	432
3553	4225	2.00014762759	432
3553	4259	2.00015498759	432
3553	4596	3.000101508556	432
3553	4689	3.000108868556	432
3553	4802	3.000116228556	432
3553	4914	3.000123588556	432
3553	5018	3.000130948556	432
3553	5114	3.000138308556	432
3553	5196	3.000145668556	432
3553	5230	3.000153028556	432
3554	2495	0.3	29280
3554	2495	0.4	0
3554	2495	0.5	0
3554	2495	0.6	0
3554	2495	0.7	0
3554	2495	0.8	0
3554	2495	0.9	0
3554	2495	1	0
3554	3631	1.1	34560
3554	3631	1.2	0
3554	3631	1.3	0
3554	3631	1.4	0
3554	3631	1.5	0
3554	3631	1.6	0
3554	3631	1.7	0
3554	3631	1.8	0
3554	3631	1.9	0
3554	3631	2	0
3554	4596	2.1	34560
3554	4596	2.2	0
3554	4596	2.3	0
3554	4596	2.4	0
3554	4596	2.5	0
3554	4596	2.6	0
3554	4596	2.7	0
3554	4596	2.8	0
3554	4596	2.9	0
3554	4596	3	0
3554	5407	3.1	34560
3554	5407	3.2	0
3554	5407	3.3	0
3554	5407	3.4	0
3554	5407	3.5	0
3554	5407	3.6	0
3554	5407	3.7	0
3554	5407	3.8	0
3554	5407	3.9	0
3554	5407	4	0

